# 

# REDESIGN_NAME
#
# 

# NEIGHBOURS 
#
    FIND_NEIGHBS_IN      = All Entities
    NEIGHBS_ONLY_VISIBLE = false
    NEIGHBS_FLANGES      = true
# 
# Resolution
# 
    curv_resol   = 10.
    check_ncrosh = true
    ncrosh       = 1
    check_step   = false
    crosh-step   = 50.
# 
# CONS Resolution
# 
#   perimeter_length                   = 20.
    perimeter_length                   = 1.
#   distortion-distance                = 20%
    distortion-distance                = 20.%
    distortion-angle                   = 0.
    different_resolution_settings_read = keep_new
# 
# Tolerances
# 
    corner-angle         = 40.
    Focus Near Tolerance = 10.
# 
# Nodes and curves matching tolerances
# 
    ntolerance     = 0.05
    ctolerance     = 0.2
    tolerance_mode = middle
# 
# Units
# 
# 
# Quality criteria thresholds & presentation parameters
#
    name                     = 
# Enabled/Disabled Ranges
    Criterion_ranges_enabled = false
# 
# Shells Quality Criteria 
    Shells_Column_Headers           = Best, Good, Failed, Worst, 
# Ranges  Shells                 = common_percentage, penalty, is_range_active...
    Ranges_shells                   =       0.,       0.,        1,      60.,       0.,        1,      95.,       1.,        1,     100.,      10.,        1, 
# failed_index Shells            = failed_index
    failed_index_shells             =        2, 
# Criterion [shells]             = flag, calculation : color| weight | value, percentage/ value, percentage/...
# 
#   aspect ratio [shells]           = OFF,        NASTRAN :     0XFFFF00|     1. |           1.,    -1./           2.,    -1./           3.,    -1./           6.,    -1./ 
    aspect ratio [shells]           =  ON,         ABAQUS :     0XFFFF00|     1. |           1.,    -1./           2.,    -1./           5.,    -1./           6.,    -1./ 
    skewness [shells]               = OFF,         PATRAN :     0X00FF00|     1. |           0.,    -1./         22.5,    -1./          45.,    -1./          90.,    -1./ 
    warping [shells]                = OFF,          IDEAS :     0X00E6FF|     1. |           0.,    -1./           5.,    -1./          10.,    -1./         180.,    -1./ 
    taper [shells]                  = OFF,         PATRAN :     0X0028FF|     1. |           1.,    -1./         0.75,    -1./         0.35,    -1./         0.25,    -1./ 
    crash time step [shells]        = OFF,        LS-DYNA :     0XAA00AA|     1. |           1.,    -1./       1.4E-6,    -1./        1.E-6,    -1./           0.,    -1./ 
#   min height [shells]             = OFF,  QUADS & TRIAS :     0X0096AA|     1. |          20.,    -1./           0.,    -1./           0.,    -1./           0.,    -1./ 
    min height [shells]             = OFF,  QUADS & TRIAS :     0X0096AA|     1. |           3.,    -1./           0.,    -1./           0.,    -1./           0.,    -1./ 
    squish [shells]                 = OFF,                :     0X00AA00|     1. |           0.,    -1./         0.15,    -1./          0.3,    -1./           1.,    -1./ 
    jacobian [shells]               = OFF,           ANSA :     0X0000AA|     1. |           1.,    -1./          0.8,    -1./          0.7,    -1./           0.,    -1./ 
#   min length [shells]             = OFF,                :     0XFF0000|     1. |          20.,    -1./           0.,    -1./           0.,    -1./           0.,    -1./ 
    min length [shells]             =  ON,                :     0XFF0000|     1. |           3.,    -1./           0.,    -1./          1.2,    -1./           0.,    -1./ 
#   max length [shells]             = OFF,                :     0XFF0000|     1. |          20.,    -1./           0.,    -1./           0.,    -1./           0.,    -1./ 
    max length [shells]             =  ON,                :     0XFF0000|     1. |           3.,    -1./           0.,    -1./           6.,    -1./           0.,    -1./ 
#   min angle quads [shells]        = OFF,          IDEAS :     0XE14B00|     1. |          90.,    -1./          60.,    -1./          45.,    -1./           0.,    -1./ 
    min angle quads [shells]        =  ON,          IDEAS :     0XE14B00|     1. |          90.,    -1./          60.,    -1./          45.,    -1./           0.,    -1./ 
#   max angle quads [shells]        = OFF,          IDEAS :     0XE14B00|     1. |          90.,    -1./         115.,    -1./         135.,    -1./         180.,    -1./ 
    max angle quads [shells]        =  ON,          IDEAS :     0XE14B00|     1. |          90.,    -1./         115.,    -1./         135.,    -1./         180.,    -1./ 
#   min angle trias [shells]        = OFF,          IDEAS :     0XE14B00|     1. |          60.,    -1./          45.,    -1./          30.,    -1./           0.,    -1./ 
    min angle trias [shells]        =  ON,          IDEAS :     0XE14B00|     1. |          60.,    -1./          45.,    -1./          30.,    -1./           0.,    -1./ 
#   max angle trias [shells]        = OFF,          IDEAS :     0XE14B00|     1. |          60.,    -1./          90.,    -1./         120.,    -1./         180.,    -1./ 
    max angle trias [shells]        =  ON,          IDEAS :     0XE14B00|     1. |          60.,    -1./          90.,    -1./         120.,    -1./         180.,    -1./ 
    stretch [shells]                = OFF,                :     0X8E8E8E|     1. |           1.,    -1./         0.75,    -1./          0.5,    -1./           0.,    -1./ 
#   mid point deviation % [shells]  = OFF,                :     0X494949|     1. |           0.,    -1./         0.25,    -1./        0.333,    -1./           1.,    -1./ 
    mid point deviation % [shells]  =  ON,                :     0X494949|     1. |           0.,    -1./         0.25,    -1./        0.333,    -1./           1.,    -1./ 
#   mid point alignment % [shells]  = OFF,                :     0XFF9E53|     1. |          0.5,    -1./          0.4,    -1./        0.333,    -1./           0.,    -1./ 
    mid point alignment % [shells]  =  ON,                :     0XFF9E53|     1. |          0.5,    -1./          0.4,    -1./        0.333,    -1./           0.,    -1./ 
    triangles % [shells]            = OFF,                :     0X55AA7F|     1. |           0.,    -1./        BLANK,    -1./          0.2,   100./        BLANK,    -1./ 
    triangles per node [shells]     = OFF,                :     0X636300|     1. |           0.,    -1./           1.,    -1./           3.,    -1./           4.,    -1./ 
    mesh distortion [shells]        = OFF,                :     0XFF55FF|     1. |           0.,    -1./           2.,    -1./           4.,    -1./          20.,    -1./ 
    distance from geometry [shells] = OFF,                :     0X9B30FF|     1. |           0.,    -1./           1.,    -1./           2.,    -1./           3.,    -1./ 
    distance from origin [shells]   = OFF,                :     0XADFF2F|     1. |           0.,    -1./           1.,    -1./           2.,    -1./           3.,    -1./ 
    multi violation [shells]        = OFF,                :     0XB7B700|     1. |           0.,    -1./           1.,    -1./           2.,    -1./           4.,    -1./ 
    growth ratio [shells]           = OFF,                :     0XAAAAFF|     1. |          0.8,    -1./           1.,    -1./          1.2,    -1./           2.,    -1./ 
#   incomplete element [shells]     = OFF,                :     0X11BBDD|     1. |        BLANK,    -1./        BLANK,    -1./        BLANK,    -1./        BLANK,    -1./ 
    incomplete element [shells]     =  ON,                :     0X11BBDD|     1. |        BLANK,    -1./        BLANK,    -1./        BLANK,    -1./        BLANK,    -1./ 
    h-ratio [shells]                = OFF,                :     0X64BEFF|     1. |          0.5,    -1./          0.4,    -1./          0.3,    -1./          0.1,    -1./ 
    thickness to length [shells]    = OFF,                :     0XFFBD70|     1. |           0.,    -1./          0.2,    -1./          0.5,    -1./          0.8,    -1./ 
    heuristic shape [shells]        = OFF,                :     0X4D73FF|     1. |           1.,    -1./          0.3,    -1./          0.1,    -1./           0.,    -1./ 
# 
# Solids Quality Criteria 
    Solids_Column_Headers            = Best, Good, Failed, Worst, 
# Ranges Solids                  = common_percentage, penalty, is_range_active...
    Ranges_solids                    =       0.,       0.,        1,      60.,       0.,        1,      95.,       1.,        1,     100.,      10.,        1, 
# failed_index Solids            = failed_index
    failed_index_solids              =        2, 
# Criterion  [solids]            = flag, calculation : color| weight | value, percentage/ value, percentage/...
# 
#   aspect ratio [solids]            = OFF,        NASTRAN :     0XFFFF00|     1. |       1.2247,    -1./           3.,    -1./           8.,    -1./          15.,    -1./ 
    aspect ratio [solids]            =  ON,        NASTRAN :     0XFFFF00|     1. |       1.2247,    -1./           3.,    -1./           8.,    -1./          15.,    -1./ 
#   skewness [solids]                = OFF,         FLUENT :     0X00FF00|     1. |           0.,    -1./         0.25,    -1./          0.5,    -1./           1.,    -1./ 
    skewness [solids]                =  ON,         ABAQUS :     0X00FF00|     1. |           1.,    -1./         0.25,    -1./          0.1,    -1./           1.,    -1./ 
    warping [solids]                 = OFF,          IDEAS :     0X00E6FF|     1. |           0.,    -1./           5.,    -1./          10.,    -1./          90.,    -1./ 
    crash time step [solids]         = OFF,        LS-DYNA :     0XAA00AA|     1. |           1.,    -1./       1.4E-6,    -1./        1.E-6,    -1./           0.,    -1./ 
    squish [solids]                  = OFF,                :     0X00AA00|     1. |           0.,    -1./         0.15,    -1./          0.3,    -1./           1.,    -1./ 
    jacobian [solids]                = OFF,           ANSA :     0X0000AA|     1. |           1.,    -1./          0.8,    -1./          0.7,    -1./           0.,    -1./ 
#   min length [solids]              = OFF,                :     0XFF0000|     1. |          20.,    -1./           0.,    -1./           0.,    -1./           0.,    -1./ 
    min length [solids]              =  ON,                :     0XFF0000|     1. |           3.,    -1./           0.,    -1./          1.2,    -1./           0.,    -1./ 
#   max length [solids]              = OFF,                :     0XFF0000|     1. |          20.,    -1./           0.,    -1./           0.,    -1./           0.,    -1./ 
    max length [solids]              =  ON,                :     0XFF0000|     1. |           3.,    -1./           0.,    -1./           8.,    -1./           0.,    -1./ 
#   min angle tetras [solids]        = OFF,         ABAQUS :     0XE14B00|     1. |        70.53,    -1./          40.,    -1./          20.,    -1./           0.,    -1./ 
    min angle tetras [solids]        = OFF,         ABAQUS :     0XE14B00|     1. |          60.,    -1./          40.,    -1./          20.,    -1./           0.,    -1./ 
#   max angle tetras [solids]        = OFF,         ABAQUS :     0XE14B00|     1. |        70.53,    -1./          90.,    -1./         120.,    -1./         180.,    -1./ 
    max angle tetras [solids]        = OFF,         ABAQUS :     0XE14B00|     1. |          60.,    -1./          90.,    -1./         120.,    -1./         180.,    -1./ 
    min angle pentas [solids]        = OFF,         ABAQUS :     0XE14B00|     1. |          60.,    -1./          45.,    -1./          30.,    -1./           0.,    -1./ 
    max angle pentas [solids]        = OFF,         ABAQUS :     0XE14B00|     1. |          60.,    -1./          90.,    -1./         120.,    -1./         180.,    -1./ 
    min angle hexas [solids]         = OFF,         ABAQUS :     0XE14B00|     1. |          90.,    -1./          60.,    -1./          30.,    -1./           0.,    -1./ 
    max angle hexas [solids]         = OFF,         ABAQUS :     0XE14B00|     1. |          90.,    -1./         110.,    -1./         140.,    -1./         180.,    -1./ 
    stretch [solids]                 = OFF,                :     0X8E8E8E|     1. |           1.,    -1./         0.75,    -1./          0.5,    -1./           0.,    -1./ 
    collapse [solids]                = OFF,                :     0XA05AE6|     1. |           1.,    -1./          0.9,    -1./         0.75,    -1./           0.,    -1./ 
#   mid point deviation % [solids]   = OFF,                :     0X494949|     1. |           0.,    -1./         0.25,    -1./        0.333,    -1./           1.,    -1./ 
    mid point deviation % [solids]   =  ON,                :     0X494949|     1. |           0.,    -1./         0.25,    -1./        0.333,    -1./           1.,    -1./ 
#   mid point alignment % [solids]   = OFF,                :     0XFF9E53|     1. |          0.5,    -1./          0.4,    -1./        0.333,    -1./           0.,    -1./ 
    mid point alignment % [solids]   =  ON,                :     0XFF9E53|     1. |          0.5,    -1./          0.4,    -1./        0.333,    -1./           0.,    -1./ 
    multi violation [solids]         = OFF,                :     0XB7B700|     1. |           0.,    -1./           1.,    -1./           2.,    -1./           4.,    -1./ 
    non orthogonality [solids]       = OFF,       OPENFOAM :     0XBA7C5D|     1. |           0.,    -1./          50.,    -1./          70.,    -1./          80.,    -1./ 
    growth ratio [solids]            = OFF,           ANSA :     0XAAAAFF|     1. |          0.8,    -1./           1.,    -1./          1.2,    -1./           2.,    -1./ 
#   negative volume [solids]         = OFF,        PARTIAL :     0X11FFAA|     1. |        BLANK,    -1./        BLANK,    -1./        BLANK,    -1./        BLANK,    -1./ 
    negative volume [solids]         =  ON,        PARTIAL :     0X11FFAA|     1. |        BLANK,    -1./        BLANK,    -1./        BLANK,    -1./        BLANK,    -1./ 
#   incomplete element [solids]      = OFF,                :     0X11BBDD|     1. |        BLANK,    -1./        BLANK,    -1./        BLANK,    -1./        BLANK,    -1./ 
    incomplete element [solids]      =  ON,                :     0X11BBDD|     1. |        BLANK,    -1./        BLANK,    -1./        BLANK,    -1./        BLANK,    -1./ 
    left handed [solids]             = OFF,                :     0XBABA9B|     1. |        BLANK,    -1./        BLANK,    -1./        BLANK,    -1./        BLANK,    -1./ 
#   min height [solids]              = OFF,                :     0X0096AA|     1. |          20.,    -1./           0.,    -1./           0.,    -1./           0.,    -1./ 
    min height [solids]              = OFF,                :     0X0096AA|     1. |           3.,    -1./           0.,    -1./           0.,    -1./           0.,    -1./ 
    h-ratio [solids]                 = OFF,                :     0X64BEFF|     1. |        0.333,    -1./          0.2,    -1./         0.15,    -1./         0.12,    -1./ 
#   determinant [solids]             = OFF,                :     0X55557F|     1. |        0.333,    -1./          0.1,    -1./        0.001,    -1./       0.0001,    -1./ 
    determinant [solids]             = OFF,       OPENFOAM :     0X55557F|     1. |        0.333,    -1./          0.1,    -1./        0.001,    -1./       0.0001,    -1./ 
#   layers quality [solids]          = OFF,                :     0XAA007F|     1. |          0.0,    -1./          0.5,    -1./           1.,    -1./           2.,    -1./ 
    layers quality [solids]          = OFF,                :     0XAA007F|     1. |           0.,    -1./          0.5,    -1./           1.,    -1./           2.,    -1./ 
#   face tetquality [solids]         = OFF,                :     0XBB117F|     1. |           10,    -1./        0.001,    -1./       1.E-12,    -1./           0,     -1./ 
    face tetquality [solids]         = OFF,                :     0XBB117F|     1. |          10.,    -1./        0.001,    -1./       1.E-30,    -1./           0.,    -1./ 
    min volume [solids]              = OFF,                :     0X74001B|     1. |        8000.,    -1./           0.,    -1./           0.,    -1./           0.,    -1./ 
#   solver custom [solids]           = OFF,         TAU :     0XAA104D|     1. |          1.0,    -1./          0.2,    -1./           0.1,   -1./           0.,    -1./ 
    solver custom [solids]           = OFF,            TAU :     0XAA104D|     1. |           1.,    -1./          0.2,    -1./          0.1,    -1./           0.,    -1./ 
#   edge point angle [solids]        = OFF,        NASTRAN :     0X6E6300|     1. |         180.,    -1./         165.,    -1./         150.,    -1./         130.,    -1./ 
    edge point angle [solids]        = OFF,        NASTRAN :     0X6E6300|     1. |         180.,    -1./         160.,    -1./         150.,    -1./         130.,    -1./ 
#   edge point length ratio [solids] = OFF,        NASTRAN :     0Xc3B000|     1. |           1.,    -1./         0.75,    -1./          0.5,    -1./         0.25,    -1./ 
    edge point length ratio [solids] = OFF,        NASTRAN :     0XC3B000|     1. |           1.,    -1./         0.75,    -1./          0.5,    -1./         0.25,    -1./ 
    twist angle [solids]             = OFF,                :     0XFFA1E6|     1. |           0.,    -1./         22.5,    -1./          45.,    -1./          60.,    -1./ 
# 
# Presentation Parameters 
# 
# Draw Options 
    b_shr_ra                       = false
    shrink_rat                     = 10.
    feature-angle                  = 40.
    sd_unmesh                      = true
    draw_2nd_order_fast            = true
    draw_2nd_order_perim_in_detail = true
    b_shell_as_solid               = false
    light_act                      = true
    transparency_act               = true
    transparency_val               = 50
    connection_draw_mode           = Ent
    show_connection_ids            = false
# Labels 
    b_shwlb_all                    = false
    b_shwlb_el                     = false
    b_shwlb_lo                     = false
    b_shwlb_nm                     = false
    b_shwlb_ms                     = false
    b_shwlb_spc                    = false
# Nodes 
    b_shwlb_no                     = false
    b_shwlb_node_names             = false
    b_shwlb_fld10                  = false
# Magnitude 
    b_force_mg                     = false
    b_mass_mg                      = false
    b_dvgrid_mg                    = false
# Misc 
    b_shw_elcd                     = true
    b_shw_mator                    = false
    b_shw_mator_vectors            = false
    b_shw_mator_x_axis             = true
    b_shw_mator_y_axis             = true
    b_shw_mator_z_axis             = true
    b_shw_cros                     = false
    b_draw_pbsect_mode             = as_shells
    b_shw_cros_ms12sys             = true
    b_transfms                     = true
    b_transfms_method              = Current deck
    b_shr_rbe2                     = false
    b_explode                      = false
    b_perc_lbl                     = false
    draw_CONS_like_ENT_mode        = 1
    per_container_draw_mode        = 1
    draw_interior_of_solid_mesh    = 0
    zoom_factor                    = 50
# 
# Coordinate Systems
# 
# Size Option ( Absolute | Relative to screen (%))
    coord_size_type = Relative
# Size Value 
    b_coord_size    = 3.
# Line Width 
    b_coord_lw      = 1
# 
# Draw Sizes Loads
# 
# Loads Size Option ( Absolute | Relative to screen (%))
    loads_size_type = Relative
# Loads Size Value 
    b_load_size     = 5.
# 
# Draw Sizes Kinetics
# 
# Kinetics Size Option ( Absolute | Relative to model (%))
    kinetics_size_type = Relative
# Kinetics Size Value 
#   b_kinetics_size    = 5.
    b_kinetics_size    = 3.
# 
# Shell Normal Vectors
# 
# Show Shell Normal Vectors
    show_shellnormal      = false
# 
# Size Option ( Absolute | Relative to screen (%))
    shellnormal_size_type = Relative
# Size Value 
    shellnormal_size      = 3.
# 
# Graph Parameters 
# 
# Quality Graph Options 
    quality_graph_by              = aspect ratio
    qgraph_range_indexes          = 0 , 3
# Separation Graph Options 
    sgraph_use_shells_nodes       = true
    sgraph_use_shells_cog         = true
    sgraph_autocalculate          = false
    sgraph_sign_dist              = true
    sgraph_search_range           = 1.
    sgraph_draw_results_mode      = 2
    sgraph_color_groups_mode      = 0
    sgraph_detailed_results_avrg  = false
    sgraph_detailed_results_min   = false
    sgraph_detailed_results_max   = false
    sgraph_detailed_results_nodes = true
# Color Bar Range 
#   draw_range                    = 0 , 1 : Visible 
    draw_range                    = 0. , 1. : Visible 
    draw_range_colors             = Palette Colors
    bar_colors                    = 0, 0, 0.8, 0, 0.5, 0.8, 0, 1, 0.8, 0, 1, 0.4, 0, 1, 0, 0.5, 1, 0, 1, 1, 0, 1, 0.5, 0, 1, 0, 0, 
    no_value_color                = 0.735, 0.735, 0.735, 
    extra_bar_colors              = false
# Color Bar Options 
    show_draw_mode_label          = true
# Color Bar Options 
    show_colors_from_red_to_blue  = false
# Jacobian User Definition Data 
    jacobian_criterion_value                   = 0
    jacobian_gauss_points_first_order_tetra    = 0
    jacobian_gauss_points_first_order_penta    = 3
    jacobian_gauss_points_first_order_hexa     = 0
    jacobian_gauss_points_first_order_pyramid  = 2
    jacobian_gauss_points_first_order_tria     = 3
    jacobian_gauss_points_first_order_quad     = 1
    jacobian_gauss_points_second_order_tetra   = 3
    jacobian_gauss_points_second_order_penta   = 3
    jacobian_gauss_points_second_order_hexa    = 3
    jacobian_gauss_points_second_order_pyramid = 2
    jacobian_gauss_points_second_order_tria    = 3
    jacobian_gauss_points_second_order_quad    = 2
    superelements_output_folder                = /home/siegl@cax.lan/hk-u3.cax.lan_12408_1/
# 
# Model Browser 
# 
    hide_window_on_identify                          = true
    get_always_current_part                          = false
    apply_numbering_rules_on_mb_containers           = true
    bulb_icon_size                                   = small
    UserAttribute_ShowOnlyLastName                   = true
    mb_show_hide_connection_entities                 = Affected
    mb_show_hide_connection_entities_of_parent_group = true
    show_merged_spdrm_part_attributes                = false
    transparency_level_for_model_inspector           = 90
# 
# Model Browser Contents 
# 
    mb_contents__parts__default_view                         = Part contents & related
    mb_contents__library_items__default_view                 = Contents
    mb_contents__loadcases__default_view                     = Contents & related
    mb_contents__parts__parts_contents                       = Included Entities:true
    mb_contents__parts__parts_and_references                 = Included Entities:true, Properties:true, Materials:true
    mb_contents__parts__parts_and_related                    = Included Entities:true, Connections:true, Connections option:Affected, Connections of parent:true, Properties:true, Materials:true, Sets:true
    mb_contents__library_items__include_contents             = Included Entities:true
    mb_contents__library_items__include_contents_and_related = Included Entities:true, Connections:true, Connections option:Affected, Connections of parent:true, Properties:true, Materials:true, Sets:true
    mb_contents__loadcases__include_contents                 = Included Entities:true
    mb_contents__loadcases__include_contents_and_related     = Included Entities:true, Connections:true, Connections option:Affected, Connections of parent:true, Properties:true, Materials:true, Sets:true
# 
# Activate configurations options 
# 
    Reapply_Connections                          = false
    Reapply_GEBs                                 = false
    Deactivate_Entities                          = false
    ActivateConfigurationsPostScriptFunctionName = 
    ActivateConfigurationsPostScriptFilePath     = 
# 
# Lifecycle management options
# 
    Validation_enabled = false
    auto_target_id_range_method                      = Disabled
# 
# Info Tabs Settings 
# 
    DM_Query_Properties_Per_Object_Type     = {"ANSA_LOADCASE":"Discipline,Name,Simulation_Model","ANSA_SIMULATION_MODEL":"Project,Release,Discipline,Name","ANSA_SIMULATION_RUN":"Project,Release,Discipline,Name,Simulation_Model,LoadCase","ANSA_SUBSYSTEM":"Module Id,Project,Release,Variant,Discipline","DM_Library_Item":"Name,Load Path"}
    DM_Non_Query_Properties_Per_Object_Type = {"ANSA_LOADCASE":"File Type,File","ANSA_SIMULATION_MODEL":"Study Version,File Type","ANSA_SIMULATION_RUN":"Study Version,File Type,Main_File","ANSA_SUBSYSTEM":"Study Version,Representation,File Type"}
# 
# CAD to ANSA 
# 
    oia_num_of_parallel_jobs                              = 0
    oia_time_out_limit                                    = 30
    oia_use_dm_option                                     = temporary
    oia_specific_dm_path                                  = 
    oia_representation_name                               = translated_cad
    oia_check_in_dm                                       = true
    oia_check_in_dm_representation_priority               = 
    oia_check_for_other_representations                   = true
    oia_use_attached_ansa_files_instead_of_checking_in_dm = false
    oia_script_per_part_flag                              = false
    oia_script_per_part_file_name                         = 
    oia_script_per_part_function_name                     = 
    oia_script_all_parts_flag                             = false
    oia_script_all_parts_file_name                        = 
    oia_script_all_parts_function_name                    = 
    oia_file_type_priority                                = 
    oia_ansa_executable                                   = 
    oia_report_directory                                  = 
    oia_open_group_files                                  = false
    oia_use_always_the_ansa_feature                       = false
    oia_conflict_nodes                                    = Offset
    oia_conflict_properties                               = Offset
    oia_conflict_materials                                = Offset
    oia_conflict_sets                                     = Offset
    oia_conflict_coords                                   = Offset
    oia_conflict_bc_sets                                  = Offset
# 
# Measurements 
# 
#   color_RGB            = 255, 85, 255
    color_RGB            = 255, 85, 255, 100
    line_width           = 2
    format               = free
    digits               = 2
    show_id              = false
    show_label           = true
    show_all_results     = false
    show_all_components  = true
    show_local_coord     = true
    show_limits          = true
    show_always_in_front = true
# 
# Curves 
# 
    curves_color = 169, 0, 169, 100
    curves_width = 1
# 
# Entities Colors RGBA 
# 
    face_shell_solid_front_color = 178, 178, 178, 100
    face_shell_solid_back_color  = 204, 204, 0, 100
# 
# FATXML model hierarchy 
# 
# 
# FATXML output options 
# 
    FATXML_excluded_tags_from_output = 
# 
# Cutting Planes 
# 
#   cutting_planes_color_RGB = 0, 255, 0
    cutting_planes_color_RGB = 0, 255, 0, 100
    Section Color            = Default
    Clip                     = true
    NegativeClip             = false
    Finite                   = false
    Show Mesh At Solids      = true
    Show Complete Solids     = false
    Draw Only Section        = false
    Slice ON/OFF             = false
    Slice Width              = 0.
# 
# Cross Sections 
# 
    crs_draw_with_transparent_shadow        = true
    crs_curves_resolution                   = 10.
    crs_nas_beam_prop_type                  = PBEAM
    crs_assign_props_resp_axis              = X-Y
    crs_auto_update_after_run               = true
    crs_calc_offset_of_beams                = true
    crs_bound_elem_factor                   = 0
    crs_pbxsect_nastran_restrictions        = Old
    crs_pbsect_distortion_angle             = 5.
    crs_pbsect_point_start_id               = 
    crs_pbsect_set3_start_id                = 
    crs_pbxsect_seg_thic_mode               = initial
    crs_non_homo_dE                         = 100.
    crs_non_homo_ref_mode                   = user_selection
    crs_non_homo_Eref                       = 210000.
    crs_non_homo_nref                       = 0.3
# 
#   crs_res_val_A                           = true, default, 3, 
    crs_res_val_A                           = true, default, 3, 0.
#   crs_res_val_xs                          = true, default, 3, 
    crs_res_val_xs                          = true, default, 3, 0.
#   crs_res_val_ys                          = true, default, 3, 
    crs_res_val_ys                          = true, default, 3, 0.
#   crs_res_val_Ix                          = true, default, 3, 
    crs_res_val_Ix                          = true, default, 3, 0.
#   crs_res_val_Iy                          = true, default, 3, 
    crs_res_val_Iy                          = true, default, 3, 0.
#   crs_res_val_Ixy                         = true, default, 3, 
    crs_res_val_Ixy                         = true, default, 3, 0.
#   crs_res_val_alfa                        = true, default, 3, 
    crs_res_val_alfa                        = true, default, 3, 0.
#   crs_res_val_I1                          = true, default, 3, 
    crs_res_val_I1                          = true, default, 3, 0.
#   crs_res_val_I2                          = true, default, 3, 
    crs_res_val_I2                          = true, default, 3, 0.
#   crs_res_val_It                          = true, default, 3, 
    crs_res_val_It                          = true, default, 3, 0.
#   crs_res_val_xm                          = true, default, 3, 
    crs_res_val_xm                          = true, default, 3, 0.
#   crs_res_val_ym                          = true, default, 3, 
    crs_res_val_ym                          = true, default, 3, 0.
#   crs_res_val_Cw(s)                       = true, default, 3, 
    crs_res_val_Cw(s)                       = true, default, 3, 0.
#   crs_res_val_Cw(m)                       = true, default, 3, 
    crs_res_val_Cw(m)                       = true, default, 3, 0.
#   crs_res_val_Gamma                       = true, default, 3, 
    crs_res_val_Gamma                       = true, default, 3, 0.
#   crs_res_val_Wx                          = true, default, 3, 
    crs_res_val_Wx                          = true, default, 3, 0.
#   crs_res_val_Wy                          = true, default, 3, 
    crs_res_val_Wy                          = true, default, 3, 0.
    crs_res_val_W1                          = true, default, 3, 
    crs_res_val_W2                          = true, default, 3, 
#   crs_res_val_Wpx                         = true, default, 3, 
    crs_res_val_Wpx                         = true, default, 3, 0.
#   crs_res_val_Wpy                         = true, default, 3, 
    crs_res_val_Wpy                         = true, default, 3, 0.
    crs_res_val_Wp1                         = true, default, 3, 
    crs_res_val_Wp2                         = true, default, 3, 
#   crs_res_val_A1                          = true, default, 3, 
    crs_res_val_A1                          = true, default, 3, 0.
#   crs_res_val_A2                          = true, default, 3, 
    crs_res_val_A2                          = true, default, 3, 0.
#   crs_res_val_A12                         = true, default, 3, 
    crs_res_val_A12                         = true, default, 3, 0.
#   crs_res_val_Ax                          = true, default, 3, 
    crs_res_val_Ax                          = true, default, 3, 0.
#   crs_res_val_Ay                          = true, default, 3, 
    crs_res_val_Ay                          = true, default, 3, 0.
    crs_res_val_Dh                          = true, default, 3, 
# 
    crs_similarity                          = false
    crs_similarity_mode                     = Geometry
    crs_geom_similarity_factor              = 0.
    crs_geom_similarity_tolerance           = 0.1
    crs_geom_similarity_tolerance_thickness = 
    crs_geom_similarity_tolerance_E         = 
    crs_geom_similarity_tolerance_n         = 
# 
    crs_creator_young_modulus               = 210000.
    crs_creator_poisson_ratio               = 0.3
    crs_plane_transparency                  = 20
    highlight_items_in_batch_mesh_items_window = true
# Status Update Options: never, always, after_run 
    update_status                              = always
# Batch Mesh Input Type Options: PARTS, GROUPS, PIDS 
    batch_mesh_input_type                      = PARTS
# 
# Report Parameters
# 
    parts_general_info_flag       = true
    parts_session_info_flag       = true
    shells_average_length_flag    = true
    unmeshed_flag                 = true
    triangles_percentage_flag     = true
    solids_average_length_flag    = true
    shells_solids_same_array_flag = true
    show_percentages_flag         = true
    CustomBiasScriptFunctionName  = 
    CustomBiasScriptFunctionPath  = 
# 
# Perimeter Spacing Parameters
# 
    SpacingMode           = 0
    SpacingFactor         = 
    SpacingFactorEnd      = 
    SpacingDmin           = 
    SpacingDminFlag       = 0
    SpacingDmax           = 
    SpacingDmaxFlag       = 0
    SpacingDiv            = 
    SpacingDivFlag        = 0
    SpacingSteps          = 
    SpacingStepsFlag      = 0
    SpacingDlimit         = 
    SpacingDlimitFlag     = 0
    SpacingShowStepsFlag  = 1
    SpacingShowLabelsFlag = 1
#
# Cad output parameters
    TRANSL_EXPORT_PART_STRUCTURE = true
    TRANSL_EXPORT_EMPTY_PARTS    = false
# 
# Geometry Parameters
    INTERSECTION_PAIR_LIMIT         = 13
#   NEW_FACE_DEFAULT_OPTION         = EXISTING SURF
    NEW_FACE_DEFAULT_OPTION         = COONS
    NEW_FACE_RESPECT_USER_SELECTION = 0
# 
# Skin Parameters
    SKIN_THICKNESS_CHECK_LIMIT_mm  = 6.
    SKIN_THICKNESS_CHECK           = true
    SKIN_THICKNESS_DECIMALS        = 3
    SKIN_OFFSET_TYPE               = LINK_DISTANCE
    SKIN_AUTO_SELECTION            = true
    SKIN_BATCH_MODE                = false
    SKIN_DELETE_ORIGINAL_FACES     = true
    SKIN_APPLY_ESTIMATED_THICKNESS = true
# 
# Surface Break Parameters
    SURFs_BREAK_DISCONTINUITIES            = true
    SURFs_BREAK_PATCHES                    = false
    SURFs_BREAK_CONSTANT_CURVATURE         = false
    SURFs_BREAK_MAXIMUM_CURVATURE          = false
    SURFs_BREAK_PREVIEW                    = true
# 
# Surface Break Parameters
    SURFs_BREAK_MAX_CURVATURE_SLIDER_VALUE = 90
# 
# Surface Info Parameters
    WIREFRAME        = true
    AXES             = true
    SURFACE_ANALYSIS = false
    SIGN             = false
    OPTION           = REFLECTIVE_SHADOW
    DETAIL           = MIDDLE_DETAIL
# 
# Faces Cut Parameters
    CUT_OPTION = false
    HEAL_CUT   = false
# 
# Faces Flanges Compatible Parameters
    FACES_FLANGES_COMPATIBLE_PROXIMITY        = 1.
    FACES_FLANGES_COMPATIBLE_ANGLE            = 10.
    FACES_FLANGES_COMPATIBLE_MININUM_OVERLAP  = 5.
    FACES_FLANGES_COMPATIBLE_DEFAULT_TYPE     = Link
    FACES_FLANGES_COMPATIBLE_ALLOW_SAME_PID   = No
    FACES_FLANGES_COMPATIBLE_FUSE_KEEP_FACES  = None
    FACES_FLANGES_COMPATIBLE_ASSIGN_PID_FUSE  = Master
    FACES_FLANGES_COMPATIBLE_ASSIGN_PID_LINK  = Master/Slave
    FACES_FLANGES_COMPATIBLE_ASSIGN_PID_TOPO  = Master
    FACES_FLANGES_COMPATIBLE_ASSIGN_PART_FUSE = Master
    FACES_FLANGES_COMPATIBLE_ASSIGN_PART_LINK = Master/Slave
    FACES_FLANGES_COMPATIBLE_ASSIGN_PART_TOPO = Master
# 
# Surface Reduce Parameters
    REDUCE_SHRINK         = true
    REDUCE_PERFACE        = false
    REDUCE_TOLERANCE      = 0.05
# Output I-DEAS Pyramids (YES | NO)
    Ouput I-DEAS Pyramids = false
    SURFACE_VOLUME_PRODUCE_VOLUME   = true
    DRAFT_FILLET_PREVIEW            = true
#
# Custom Configuration Options
#
# Enable company mode
    CompanyMode041159 = 
# Specify user privacy level
    UserPrivacyLevel  = 0
# 
# Default DECK 
#
#   icurdck = NASTRAN
    icurdck = ABAQUS
# 
# Material Options 
#
    r_dir_mat_db_files       = all
    set_new_mat_as_undefined = true
# 
# Material Databases 
#
# 
# Define default materials
# 
# 
# Define default materials for property types
# 
# 
# Tooltip mode
    tool_tip_mode = balloon
# 
# Similarity tolerance for comparing floats
    similarity_tolerance = 0.
# 
# 
# 
# OUTPUT PARAMETERS
#
#
# Output MODE (ALL | MODEL | VISIBLE)
    outpmode                                 = VISIBLE
# Include Output Mode (CONTENTS | REFERENCES)
    incloutmode                              = CONTENTS
# Output ANSA Comments (None | Above keyword | At end of file)
    outpcomments                             = At end of file
# Comment output: Names-Comments (YES | NO)
    Comment output: Names-Comments           = true
# Comment output: Groups-Parts (YES | NO)
    Comment output: Groups-Parts             = true
# Comment output: Connections (YES | NO)
    Comment output: Connections              = true
# Comment output: GEBs (YES | NO)
    Comment output: GEBs                     = true
# Comment output: Colors (YES | NO)
    Comment output: Colors                   = true
# Comment output: Kinetics (YES | NO)
    Comment output: Kinetics                 = true
# Comment output: Safety (YES | NO)
    Comment output: Safety                   = true
# Comment output: Cross-Sections (YES | NO)
    Comment output: Cross-Sections           = true
# Comment output: Numbering rules (YES | NO)
    Comment output: Numbering rules          = false
# Comment output: Results map (YES | NO)
    Comment output: Results map              = true
# Comment output: General comments (YES | NO)
    Comment output: General comments         = true
# Comment output: Ansa header (YES | NO)
    Comment output: Ansa header              = true
# Comment output: Field label (YES | NO)
    Comment output: Field label              = false
# Comment output: Inline include (YES | NO)
    Comment output: Inline include           = true
# Comment output: Lock views (YES | NO)
    Comment output: Lock views               = false
# Comment output: Miscellaneous (YES | NO)
    Comment output: Miscellaneous            = true
# Comment output: Annotations (YES | NO)
    Comment output: Annotations              = true
# Comment output: Attributes (YES | NO)
    Comment output: Attributes               = true
# Comment output: Pam-Crash header key (# | $)
    Comment output: Pam-Crash header key     = #
#
# Comment output mode (ANSA | HYPERMESH)
    Comment output mode                      = ANSA
# Show Header window
    Show Header window                       = false
# Comments in XML format
    Comments in XML format                   = false
# Output files line feed mode (System native | UNIX | DOS)
    Line feed mode                           = System native
#
# General Comments output format
#
    General Comments output format           = Pre-Formated
# General Comments Max Length in bytes (noCharacters | undefined)
    GeneralComments.MaxLength                = undefined
# Disregard Includes(YES | NO)
    Disregard Includes                       = false
# Output Only Main File(YES | NO)
    Output Only Main File                    = false
# Update Include ReferenceFile(YES | NO)
    Update Include ReferenceFile             = false
# Output All Includes in Same Directory(YES | NO)
    Output All Includes in Same Directory    = false
# Create Include Output Directory(YES | NO)
    Create Include Output Directory          = false
# Overwrite Include Reference File(YES | NO)
    Overwrite Include Reference File         = false
# Use Relative Name for Read-only Includes(YES | NO)
    Use Relative Name for Read-only Includes = false
# Apply Subcontainer Rules(YES | NO)
    Apply Subcontainer Rules                 = false
# Disregard Transformations(YES | NO)
    Disregard Transformations                = false
# Output Primer Kinematic Entities(YES | NO)
    Output Primer Kinematic Entities         = false
# Output OCCInfo tree(YES | NO)
    Output OCCInfo tree                      = false
# Activate Output Of *PARAMETER Keywords(YES | NO)
    Activate Output Of *PARAMETER Keywords   = true
# Output element thickness (NO | At element card | At element card as DISTRIBUTION | At property card, thickness range )
    Output element thickness = NO
# Output BEGIN BULK (YES | NO)
    Output BEGIN BULK                        = true
# Output EndData keyword(YES | NO)
    Output EndData                           = true
# Perform Model Check before output
    Perform_Pre_Ouput_Model_Check            = false
# Model Check Template
    Model_Check_Template                     = 
# Report if Model Check fails
    Report_On_Error                          = true
# Output I-DEAS Pyramids (YES | NO)
    I-DEAS output format                     = I-DEAS Master series
# Thickness Flag Warning (YES | NO)
    Thickness Flag Warning                   = true
# OutputParam.Pre Output Script 
    OutputParam.PreFuncName                  = 
    OutputParam.PreFuncArgs                  = 
# OutputParam.Post Output Script 
    OutputParam.PostFuncName                 = 
    OutputParam.PostFuncArgs                 = 
# 
# NASTRAN output options
# 
# Format Selection (SHORT | LONG | FREE)
    Format Selection                 = SHORT
# NASTRAN_real_number_format = scientific
# Continuation Lines (YES | NO)
    Continuation Lines               = true
# Split Pyramid in Tetras (YES | NO)
    Split Pyramid in Tetras          = false
# Create Ranges in Sets (YES | NO)
    Create Ranges in Sets            = false
# SHELLS TYPE
# 2nd order shells as 1st order (YES | NO)
    2nd order shells as 1st order    = false
# 1st order as CQUADR-CTRIAR (YES | NO)
    1st order as CQUADR-CTRIAR       = false
# SOLIDS TYPE
# 2nd order solids as 1st order (YES | NO)
    2nd order solids as 1st order    = false
# CWELDS TYPE
# ELEMID as GRIDID (YES | NO)
    ELEMID as GRIDID                 = false
# PCOMP/PCOMPG
# PCOMPG as PCOMP (YES | NO)
    PCOMPG as PCOMP                  = false
#
# NASTRAN Version (MSC_NASTRAN | NX_NASTRAN | AUTODESK_NASTRAN)
    nastran_version                  = MSC_NASTRAN
# Output Nastran Name as plain comment (YES | NO)
    name as plain comment            = false
# Output Numbering Rules as ANSA comments (YES | NO)
    numbering rules as ansa comments = false
# Contacts
# Old User Interface (YES | NO)
    Old User Interface               = false
# 
# Ls-Dyna output options
# 
# LS-DYNA Version (960 | 970 | 971 | 971R5/6 | 971R71 | 971R8 | 971R9 | 971R10)
#   ls_dyna_version                      = 971R10
    ls_dyna_version                      = 971R9
# 
# LS-DYNA Format Selection (SHORT | LONG)
    Ls-Dyna Format Selection             = SHORT
# 
# LS-DYNA Partial Long Format (YES | NO)
    Ls-Dyna Partial Long Format Output   = false
# 
# LS-DYNA Output in single precision mode (YES | NO)
    Ls-Dyna.Single Precision Output      = false
# 
# LS-DYNA Output All *CONTROL Keywords(YES | NO)
    Ls-Dyna Output All CONTROL Keywords  = false
# 
# LS-DYNA Output All *DATABASE Keywords(YES | NO)
    Ls-Dyna Output All DATABASE Keywords = false
# 
# Pam-Crash output options
# 
# Pam-Crash Output in single precision mode (YES | NO)
    Pam-Crash.Single Precision Output            = false
# 
# Output PAM-CRASH SECURE_/_ keyowrds ( YES | NO )
#   Output secure keywords                       = true
    Output secure keywords                       = false
# 
# PAM-CRASH Version (2002 | 2003 | 2004 | 2005 | 2006 | 2007 | 2008 | 2009| 2010 | 2011 | 2012 | 2013 | 2014 | 2015 | 2016 | 2017)
#   pam_crash_version                            = 2017
    pam_crash_version                            = 2015
#
# PAM-CRASH Analysis (EXPLICIT | IMPLICIT | IMPLICIT_PCG)
    pam_crash_analysis                           = EXPLICIT
#
# PAM-CRASH Continuation line symbol for include references (& | -)
    pam_crash_inclu_continuation_line_symbol     = &
# 
# Expand GES ( YES | NO )
    Expand GES                                   = false
# 
# Output metric files ( YES | NO )
    Output Metric Files                          = false
# 
# Output comments as CDATA ( YES | NO )
    Output comments as CDATA                     = false
    Generator session file rotation precision    = 4
    Generator session file translation precision = 8
# 
# Radioss output options
# 
# RADIOSS Version (41 | 42 | 44 | 51 | 90 | 100 | 110 | 120 | 130 | 140 | 170)
#   radioss_version             = 170
    radioss_version             = 130
# 
# Output Radioss Engine (YES | NO)
    Output Radioss Engine       = false
# 
# Merge Radioss Engine with Starter ( YES | NO )
    Merge Engine and Starter    = false
# 
# Output REFSTA files ( YES | NO )
    Output REFSTA Files         = false
# 
# Output Material USER(1, 2, 3) as LAW(29, 30, 31) ( YES | NO )
    Output Material USER as LAW = false
# 
# Ansys output options
# Show Load Steps window
    Show Ansys Load Steps window = false
# 
# ANSYS Version (All | 11.0 | 12.0 | 12.1 | 13.0 | 14.0 | 14.5 | 15.0 | 16.0 | 17.0 | 18.0 | 19.0)
#   ansys_version                = 19.0
    ansys_version                = 15.0
# 
# Orient Beams Using 3rd Node ( YES | NO )
    Orient Beams Using 3rd Node  = true
# 
# FLUENT-FLUENT2D output options
# 
# Fluent File Format
    Fluent File Format = Binary
# Output Solver Info(NO | YES)
    Output Solver Info = false
# 
# OpenFOAM output options
# 
# Output OpenFOAM Sets Folder (NO | YES)
    Output Openfoam Sets Folder      = false
# Output initial conditions folder (NO | YES)
    Output initial conditions folder = true
# Output OpenFOAM Solver Info (NO | YES)
    Output Openfoam Solver Info      = true
# Output OpenFOAM Version (1.4 | 1.5 | 1.6 | 1.7 | 2.0 | 2.1 | 2.2 | 2.3 | SolverInfo)
#   Output Openfoam Version          = 4.0
    Output Openfoam Version          = 3.0
# OpenFOAM Settings Script
    OpenFOAMSettingsScriptFilePath   = 
# 
# STAR output options
# 
# Star Format (STAR-CD | STAR-CCM)
    Star Format                   = STAR-CCM
# 
# Compress File (YES | NO)
    Compress File                 = true
# 
# State name
    State name                    = default
# 
# Renumber Output cell - vertex
    Renumber Output cell - vertex = true
# 
# Keep material ids
    Keep material ids             = true
# 
# Output StarCD version
    Output StarCD version         = v4
# 
# Write StarCD .bnd file
    Write StarCD .bnd file        = true
# 
# CGNS output options
# 
# Output structured mesh (YES | NO)
    Output structured mesh = false
# 
# Output mesh format (Mixed | Seperated | NGON)
    Output mesh format     = Mixed
# 
# Output file type (ADF | HDF5)
    Output file type       = ADF
# 
# STL output options
# 
# Output colors
    Output STL colors             = true
# 
# Output in exponent format
    Output STL in exponent format = false
# 
# TAU output options
# 
# TAU create mode flag (64BIT_OFFSET | NETCDF4)
    Cmode flag = 64BIT_OFFSET
# 
# CFX output options
# 
# CFX File Format
    CFX File Format = Binary
#
# Abq *STEP Output Variables
#
# NODAL_Variables  = CF,RF,U
# ELEMENT_Variables= E,PE,S
# CONTACT_Variables= CFN,CFS
# ENERGY_Variables = ALLAE,ALLIE
# MODAL_Variables  = GA,GU
# INCREMENTATION_Variables  = DT,DMASS
# INTEGRATED_Variables  = SOF,SOM
# SECTION_Variables  = SOAREA
#
# 
# OutputUnitConversion
# 
# OutputUnitConversion.ConvertOutput (true | false)
    OutputUnitConversion.ConvertOutput    = false
# OutputUnitConversion.SourceUnitSystem
    OutputUnitConversion.SourceUnitSystem = mm/ton/s
# OutputUnitConversion.TargetUnitSystem
    OutputUnitConversion.TargetUnitSystem = mm/ton/s
#
# Special Numbering Rule's Priority (NO_RULE | PROPERTY_RULE , INCLUDE_RULE , PART_RULE, CONNECTOR_RULE, GEB_RULE, SET_RULE, CONNECTION_TEMPLATE_RULE, CONNECTIONS_RULE )
#
#   Renumbering Priority                     = INCLUDE_RULE, PROP_RULE, PART_RULE, CONNECTOR_RULE, GEB_RULE, SET_RULE, CONNECTION_TEMPLATE_RULE, CONNECTIONS_RULE
    Renumbering Priority                     = INCLUDE_RULE, PROPERTY_RULE, PART_RULE, CONNECTOR_RULE, GEB_RULE, SET_RULE, CONNECTION_TEMPLATE_RULE, CONNECTION_RULE
#
# User specified ranges for IDs generated during output
#
# output_gen_id_range<GRID>   = min : max
# output_gen_id_range<SET>    = min : max
# output_gen_id_range<CONM2>  = min : max
# output_gen_id_range<PSHELL> = min : max
#
# Output filter options
#
#
# Modal-Model file names
    ModalSolver  = nastran bat=no
    ModalOutFile = modal.dat
    ModalPost    = meta
    ModalSession = $ANSA_HOME/mm.ses
#
#
#
# ABAQUS names' prefix library
# Leave lines in comments, for ANSA to assign default prefixes.
#
# Abaqus.NamePrefix ACOUSTIC_PROP = P
# Abaqus.NamePrefix AMPLITUDE = A
# Abaqus.NamePrefix AXISYMMETRIC_MEMBRANE_SECTION = P
# Abaqus.NamePrefix AXISYMMETRIC_SURFACE_SECTION = P
# Abaqus.NamePrefix BASE MOTION = BM
# Abaqus.NamePrefix BEAM_B32_SECTION = P
# Abaqus.NamePrefix BEAM_SECTION = P
# Abaqus.NamePrefix BEAM_TAPER_SECTION = P
# Abaqus.NamePrefix COHESIVE_SECTION = P
# Abaqus.NamePrefix CONNECTOR BEHAVIOR = M
# Abaqus.NamePrefix CONNECTOR_DERIVED_COMPONENT = D
# Abaqus.NamePrefix CONNECTOR_DERIVED_COMPONENT(MatDB) = D
# Abaqus.NamePrefix CONNECTOR_SECTION = P
# Abaqus.NamePrefix CONTACT_CLEARANCE = CL
# Abaqus.NamePrefix CONTACT_PAIR = T
# Abaqus.NamePrefix CONTINUUM_SHELL_SECTION = P
# Abaqus.NamePrefix COUPLING = C
# Abaqus.NamePrefix CUTTING_SURFACE = C
# Abaqus.NamePrefix DASHPOT_PROP = P
# Abaqus.NamePrefix ENTITY = O
# Abaqus.NamePrefix FASTENER_PROPERTY = P
# Abaqus.NamePrefix FILTER = F
# Abaqus.NamePrefix FLUID BEHAVIOR = M
# Abaqus.NamePrefix FLUID CAVITY = FC
# Abaqus.NamePrefix FLUID EXCHANGE = FE
# Abaqus.NamePrefix FLUID EXCHANGE ACTIVATION = 
# Abaqus.NamePrefix FLUID EXCHANGE PROPERTY = FEP
# Abaqus.NamePrefix FLUID INFLATOR = FI
# Abaqus.NamePrefix FLUID INFLATOR PROPERTY = FEP
# Abaqus.NamePrefix GAP_PROP = P
# Abaqus.NamePrefix GASKET BEHAVIOR = M
# Abaqus.NamePrefix GASKET_SECTION = P
# Abaqus.NamePrefix HEATCAP_PROP = P
# Abaqus.NamePrefix IMPEDANCE PROPERTY = IM
# Abaqus.NamePrefix INCIDENT WAVE INTERACTION PROPERTY = IM
# Abaqus.NamePrefix INTERACTION_OUTPUT = I
# Abaqus.NamePrefix INTERFACE = P
# Abaqus.NamePrefix INTERFACE = P
# Abaqus.NamePrefix JOINT_PROP = P
# Abaqus.NamePrefix LOAD CASE = 
# Abaqus.NamePrefix MATERIAL = M
# Abaqus.NamePrefix ORIENTATION_2VEC = O
# Abaqus.NamePrefix ORIENTATION_C = O
# Abaqus.NamePrefix ORIENTATION_NODES_C = O
# Abaqus.NamePrefix ORIENTATION_NODES_DYN = O
# Abaqus.NamePrefix ORIENTATION_NODES_DYN_Y = O
# Abaqus.NamePrefix ORIENTATION_NODES_R = O
# Abaqus.NamePrefix ORIENTATION_NODES_S = O
# Abaqus.NamePrefix ORIENTATION_OFFSET_TO_NODES = O
# Abaqus.NamePrefix ORIENTATION_R = O
# Abaqus.NamePrefix ORIENTATION_RDS_FRAME_NOD = O
# Abaqus.NamePrefix ORIENTATION_S = O
# Abaqus.NamePrefix PAM_FRAME_CYL = O
# Abaqus.NamePrefix PAM_FRAME_SPH = O
# Abaqus.NamePrefix PARTICLE_SECTION = P
# Abaqus.NamePrefix SECTION_CONTROL = C
# Abaqus.NamePrefix SET = 
# Abaqus.NamePrefix SHELL_SECTION = P
# Abaqus.NamePrefix SOLID_SECTION = P
# Abaqus.NamePrefix SPRING_PROP = P
# Abaqus.NamePrefix STEP = 
# Abaqus.NamePrefix SUBCYCLING = S
# Abaqus.NamePrefix SUBSTRUCTURE_PROPERTY = P
# Abaqus.NamePrefix SURFACE = S
# Abaqus.NamePrefix SURFACE_INTERACTION = I
# Abaqus.NamePrefix SURFACE_PROPERTY = SP
# Abaqus.NamePrefix SURFACE_SECTION = P
# Abaqus.NamePrefix SURFACE_SMOOTHING = SM
# Abaqus.NamePrefix TRANSFORM = T
# Abaqus.NamePrefix TRUSS_PROP = P
#
# Uncomment the following line so that ANSA ignores
# Abaqus.NamePrefix definitions that follow (MUST BE LAST)
# Abaqus.NamePrefix Lock_current_state = true
#
#
#
# Abaqus.element sets as surfaces ( YES | NO )
    Abaqus.element sets as surfaces                          = false
# Abaqus.write set as surface ( YES | NO )
    Abaqus.write set as surface                              = false
# Abaqus.preserve IDs in Names ( YES | NO )
    Abaqus.preserve IDs in Names                             = true
# Abaqus.output only IDs in Material names ( YES | NO )
    Abaqus.output only IDs in Material names                 = false
# Abaqus.output only IDs in Property names ( YES | NO )
    Abaqus.output only IDs in Property names                 = false
# Abaqus.output only IDs in Set names ( YES | NO )
    Abaqus.output only IDs in Set names                      = false
# Abaqus.solver ( UNDEFINED | STANDARD | EXPLICIT )
    Abaqus.solver                                            = UNDEFINED
# Abaqus.write Step Output Variables (ONE_PER_LINE | MAX_PER_LINE )
    Abaqus.write Step Output Variables                       = ONE_PER_LINE
#
# ABAQUS Version ( 65 | 66 | 67 | 68 | 69 | 610 | 611 | 612 | 613 | 614 | 2016 | 2017 )
#   abaqus_version                                           = 2017
    abaqus_version                                           = 2016
# Abaqus.Material Orientation Output mode ( COORD3D | ANGLE )
#   Abaqus.Material Orientation Output mode                  = COORD3D
    Abaqus.Material Orientation Output mode                  = ANGLE
# Abaqus.Output in single precision mode (YES | NO)
    Abaqus.Single Precision Output                           = false
# Abaqus.Unlimited Include File Path Name (YES | NO)
    Abaqus.Unlimited Include File Path Name                  = false
    Abaqus.Write phi in distribution tables names            = true
# Abaqus. Activate Output Of *HEADING Keywords in includes(YES | NO)
    Abaqus. Activate Output Of *HEADING Keywords in includes = true
#
# Permas output options
#
# Permas.element sets as surfaces ( YES | NO )
    Permas.element sets as surfaces   = false
# Permas.preserve IDs in Names ( YES | NO )
    Permas.preserve IDs in Names      = true
# Permas.Output $ECHO Keyword ( YES | NO )
    Permas.Output $ECHO Keyword       = false
# Permas.Output $ECHO Value ( OFF | HEADER | ON | GEN )
    Permas.Output $ECHO Value         = HEADER
# Permas.Create PLOTA at Solid Skin ( YES | NO )
    Permas.Create PLOTA at Solid Skin = false
# Permas.Assign $SURFACE by ( ID | NAME )
    Permas.Assign $SURFACE by         = NAME
# Permas.Assign $CONTACT by ( ID | NAME )
    Permas.Assign $CONTACT by         = NAME
# Permas.Assign $PRETENSION by ( ID | NAME )
    Permas.Assign $PRETENSION by      = NAME
# Permas.Version ( 12 | 13 | 15 | 16 | 17 )
#   Permas.Version                    = 17
    Permas.Version                    = 15
# 
# Moldex3D output options
# 
# File format Options (SHELL | SOLID)
    Moldex3D File format Options = SHELL
# Moldex3D FastCool ( YES | NO )
    Moldex3D FastCool            = false
# 
# Sestra output options
# Sestra.Write Analysis Control Data file ( YES | NO )
    Sestra.Write Analysis Control Data file = true
# 
# Moldflow output options
# 
# Modlflow Mesh type Options ( "Solid 3D" | "Midplane" | "Dual Domain")
    Moldflow Mesh Type Options = Solid 3D
# 
# Simulayt output options
# Simulayt.Write material attributes
    Simulayt.Write material attributes  = true
# Simulayt.Write material orientation
    Simulayt.Write material orientation = false
# 
# Plot3D output options
# 
# OutputParam.FileFormat (ASCII | C binary)
    OutputParam.FileFormat = ASCII
# 
# OutputParam.GridType (Single block | Multi block)
    OutputParam.GridType   = Multi block
# 
# OutputParam.Precision (Single | Double )
    OutputParam.Precision  = Double
# 
# OutputParam.DataLayout (Planar | Whole)
    OutputParam.DataLayout = Whole
# 
# 
# INPUT PARAMETERS
# 
# 
# InputParam.ModelAction (overwrite_model | merge_models | new_model_active_win | new_model_new_win | new_model_enabled_win )
#   InputParam.ModelAction                              = overwrite_model
    InputParam.ModelAction                              = merge_models
# InputParam.Offset-OPTION-Ids (offset | keep-old | keep-new | offset(free-ID))
    InputParam.OffsetNodesIds                           = offset
    InputParam.OffsetElementsIds                        = offset
# InputParam.Offset-OPTION-Ids (offset | keep-old | keep-new | offset(free-ID))
    InputParam.OffsetPropertiesIds                      = keep-old
    InputParam.OffsetMaterialsIds                       = keep-old
# InputParam.Offset-OPTION-Ids (offset | keep-old | keep-new)
    InputParam.OffsetSetsIds                            = keep-old
# InputParam.Offset-OPTION-Ids (offset | keep-old)
    InputParam.OffsetBcSetsIds                          = keep-old
# InputParam.Offset-OPTION-Ids (offset | keep-old | keep-new)
    InputParam.OffsetCoordsIds                          = offset
# InputParam.InputInNewInclude (YES | NO)
    InputParam.InputInNewInclude                        = false
# InputParam.ReadOnlyFlag (WP | ALL | NONE)
    InputParam.ReadOnlyFlag                             = WP
# InputParam.PreviewIncludeStructure (YES | NO)
    InputParam.PreviewIncludeStructure                  = false
# InputParam.UnsupportedKwrds2Include (YES | NO)
    InputParam.UnsupportedKwrds2Include                 = false
# InputParam.Pre Input Script 
    InputParam.PreFuncName                              = 
    InputParam.PreFuncArgs                              = 
# InputParam.Post Input Script 
    InputParam.PostFuncName                             = 
    InputParam.PostFuncArgs                             = 
# InputParam.ReadAnsaComments (YES | NO)
    InputParam.ReadAnsaComments                         = true
# InputParam.ReadHyperMeshComments (YES | NO)
    InputParam.ReadHyperMeshComments                    = false
# InputParam.MergeSetsByName (YES, AddSetsAsNested | YES, AddSetsContents | NO)
    InputParam.MergeSetsByName                          = NO
# InputParam.MergeParts (YES | NO)
    InputParam.MergeParts                               = true
# InputParam.CreateInstancesDuringMerge (YES | NO)
    InputParam.CreateInstancesDuringMerge               = false
# InputParam.MergeStepsByName (YES | NO)
    InputParam.MergeStepsByName                         = false
# InputParam.MergeVariantsByName (YES | NO)
    InputParam.MergeVariantsByName                      = false
# InputParam.Header (OVERWRITE | SKIP | NEW)
    InputParam.Header                                   = OVERWRITE
# Read Radioss Engine File (YES | NO)
    Read Radioss Engine File                            = false
# Merge Parts Split By Time Step Treatment (YES | NO)
    InputParam.MergePartsSplitByTimeStepTreatment       = false
# Set property flags from /DEF_SHELL, /DEF_SOLID (YES | NO)
    InputParam.SetPropertyFlagsFrom_DEF_SHELL_DEF_SOLID = false
# InputParam.IgnoreEnddata (YES | NO)
    InputParam.IgnoreEnddata                            = false
# InputParam.ReadReplicationLines (YES | NO)
    InputParam.ReadReplicationLines                     = false
# InputParam.CreateParameters (YES | NO)
    InputParam.CreateParameters                         = true
# Create Independent SECTIONS & PROPS (LS-DYNA & RADIOSS) (YES | NO)
    Create Independent SECTIONS & PROPS                 = false
# InputParam.PerformPidToPart (YES | NO)
    InputParam.PerformPidToPart                         = true
# InputParam.Nastran.ReadNVHMComment (YES | NO)
#   InputParam.Nastran.ReadNVHMComment                  = false
    InputParam.Nastran.ReadNVHMComment                  = true
# InputParam.PerformMaterialSynchronization (YES | NO)
    Perform Material Synchronization                    = true
# InputParam.ConvertOptiStructStackToLaminate (YES | NO)
    Convert OptiStruct STACK to ANSA Laminate           = false
# InputParam.CreateAssemblyAndInstances (YES | NO)
    Create ASSEMBLY and INSTANCEs                       = false
# Comment input: ANSA General comments (YES | NO)
    Comment input: ANSA General comments                = true
# Comment input: ANSA General comments mode (ANSA pre-format | Plain comments | All)
    Comment input: ANSA General comments mode           = ANSA pre-format
# Comment input: Name-Comment (YES | NO)
    Comment input: Name-Comment                         = true
# Comment input: Inline include (YES | NO)
    Comment input: Inline include                       = true
# Comment input: Connections (YES | NO)
    Comment input: Connections                          = true
# Comment input: Parts-Groups (YES | NO)
    Comment input: Parts-Groups                         = true
# Comment input: GEBs (YES | NO)
    Comment input: GEBs                                 = true
# Comment input: Kinetics (YES | NO)
    Comment input: Kinetics                             = true
# Comment input: Cross sections (YES | NO)
    Comment input: Cross sections                       = true
# Comment input: Results map (YES | NO)
    Comment input: Results map                          = true
# Comment input: Colors (YES | NO)
    Comment input: Colors                               = true
# Comment input: Numbering rules (YES | NO)
    Comment input: Numbering rules                      = true
# Comment input: Miscellaneous (YES | NO)
    Comment input: Miscellaneous                        = true
# Comment input: Annotations (YES | NO)
    Comment input: Annotations                          = true
# Comment input: Attributes (YES | NO)
    Comment input: Attributes                           = true
#
# 
# Numbering Rules File 
# 
    Numbering Rules File                                = 
# Input I-DEAS Pyramids (YES | NO)
    Input I-DEAS Pyramids                               = false
# InputParam.Offset-OPTION-Ids at Merge (offset | keep-old | keep-new)
#   InputParam.OffsetPropertiesIdsAtMerge               = keep-old
    InputParam.OffsetPropertiesIdsAtMerge               = offset
#   InputParam.OffsetMaterialsIdsAtMerge                = keep-old
    InputParam.OffsetMaterialsIdsAtMerge                = offset
# InputParam.Offset-OPTION-Ids at Merge (offset | keep-old | keep-new)
#   InputParam.OffsetSetsIdsAtMerge                     = keep-old
    InputParam.OffsetSetsIdsAtMerge                     = offset
# InputParam.Offset-OPTION-Ids at Merge (offset | keep-old | keep-new)
    InputParam.OffsetCoordsIdsAtMerge                   = offset
# InputParam.Offset-OPTION-Ids at Merge (offset | keep-old | keep-new)
    InputParam.OffsetNodeIdsAtMerge                     = offset
# InputParam.Offset-OPTION-Ids at Merge (offset | keep-old)
    InputParam.OffsetBcsetsIdsAtMerge                   = offset
# InputParam.MergeStepsByName (YES | NO)
    InputParam.PasteConsByName                          = false
# InputParam.InputInCFDLightMode (YES | NO)
    InputParam.InputInCFDLightMode                      = false
# InputParam.PasteNodesByNameEnabled
    InputParam.PasteNodesByNameEnabled   = false
# InputParam.PasteNodesByNameTolerance
    InputParam.PasteNodesByNameTolerance = 0.
# InputParam.IgnorePrimerKeywords (YES | NO)
    InputParam.IgnorePrimerKeywords                     = false
# 
# ABAQUS input options
# 
# Merge Properties By Layup (YES | NO)
    Merge Properties By Layup       = NO
# 
# Read Unreferenced Distributions (YES | NO)
    Read Unreferenced Distributions = YES
# 
# FLUENT input options
# 
# Skip Interior Type Faces (YES | NO)
    Skip Interior Type Faces = true
# Skip Baffles YES | NO)
    Skip Baffles             = false
# Skip Volume Mesh (YES | NO)
    Skip Volume Mesh         = false
# Read Solver Info (YES | NO)
    Read Solver Info         = true
# 
# OpenFOAM input options
# 
# controlDict (OVERWRITE | SKIP)
    controlDict      = OVERWRITE
# OpenFOAM Version (1.4 | 1.5 | 1.6 | 1.7 | 2.0 | 2.1 | 2.2 | 2.3)
#   Openfoam Version = 4.0
    Openfoam Version = 3.0
# PUFoam enabled (true | false)
    PUFoam enabled   = false
# 
# STAR input options
# 
# StarCD version
    StarCD version = v4
# 
# MEDINA input options
#
# Create ANSA Parts from MEDINA ( Parts | Layers | Properties ) 
#
    Create ANSA Parts from MEDINA                     = Parts
    Put MEDINA Layers in Sets                         = false
    Put MEDINA Layers in LockViews                    = false
    Put MEDINA Components in Includes                 = false
    Keep MEDINA Range Sets                            = false
    Create Templates from MEDINA Connector Properties = false
# 
# Create Assembly Scenario for
#
    Create Assembly Scenario for NASTRAN  = false
    Create Assembly Scenario for ABAQUS   = false
    Create Assembly Scenario for LS-DYNA  = true
    Create Assembly Scenario for PAMCRASH = false
#   Create Assembly Scenario for PERMAS   = true
    Create Assembly Scenario for PERMAS   = false
#
# Input filter options
# 
# Input Unit Conversion
# 
# InputUnitConversion.ConvertInput (true | false)
    InputUnitConversion.ConvertInput     = false
# InputUnitConversion.SourceUnitSystem
    InputUnitConversion.SourceUnitSystem = mm/ton/s
# InputUnitConversion.TargetUnitSystem
    InputUnitConversion.TargetUnitSystem = mm/ton/s
# 
# Plot3D input options
# 
# InputParam.FileFormat (ASCII | C binary | Fortran binary)
    InputParam.FileFormat     = ASCII
# 
# InputParam.Dimension (2D | 3D)
    InputParam.Dimension      = 3D
# 
# InputParam.GridType (Single block | Multi block)
    InputParam.GridType       = Multi block
# 
# InputParam.Endianness (Big Endian | Little Endian)
    InputParam.Endianness     = Little Endian
# 
# InputParam.Precision (Single | Double )
    InputParam.Precision      = Double
# 
# InputParam.ContainsIBLANK (NO | YES)
    InputParam.ContainsIBLANK = YES
# 
# InputParam.DataLayout (Planar | Whole)
    InputParam.DataLayout     = Whole
# 
# 
# File Extensions
# 
    ANSA_DB                                    = "ANSA_DB (*.ansa *.ansa.gz)"
    VDA_FS                                     = "VDA_FS (*.vda *.vdafs)"
    IGES                                       = "IGES (*.igs *.iges *.IGS *.IGES)"
    STEP                                       = "STEP (*.step *.stp)"
    NASTRAN                                    = "NASTRAN (*.nas *.bdf *.dat)"
#   LS-DYNA                                    = "LS-DYNA (*.key *.k *.i *.dyn *dynain)"
    LS-DYNA                                    = "LS-DYNA (*.key *.k)"
    PAM-CRASH                                  = "PAM-CRASH (*.pc *.inc)"
    ABAQUS                                     = "ABAQUS (*.inp)"
    RADIOSS                                    = "RADIOSS (*D00 *.rad *D01)"
    VRML                                       = "VRML (*.wrl)"
    PATRAN                                     = "PATRAN (*.pat)"
    UNIVERSAL                                  = "UNIVERSAL (*.mse *.unv)"
    MASTER-SERIES                              = "MASTER-SERIES (*.mse *.unv)"
    FREE-FORM                                  = "FREE-FORM (*.free)"
    BETA-TANK                                  = "BETA-TANK (*.tank)"
    WAVE-FRONT                                 = "WAVE-FRONT (*.obj *.wave)"
    STEREO-LITHOGRAPHY                         = "STEREO-LITHOGRAPHY (*.stl)"
    FLUENT                                     = "FLUENT (*.msh *.cas)"
    INFO                                       = "INFO (*.inf)"
    POSTSCRIPT                                 = "POSTSCRIPT (*.ps)"
    INVENTOR                                   = "INVENTOR (*.iv)"
    STAR                                       = "STAR (*.inp *.ccm)"
    ANSYS                                      = "ANSYS (*.cdb *.inp *.dat *.ans)"
    SHL-FORM                                   = "SHL-FORM (*.shl)"
    MEDINA                                     = "MEDINA (*.bif)"
    RGB                                        = "RGB (*.rgb)"
    TIFF                                       = "TIFF (*.tiff *.tif)"
    JPEG                                       = "JPEG (*.jpeg *.jpg)"
    PNG                                        = "PNG (*.png)"
    BMP                                        = "BMP (*.bmp)"
    UH3D                                       = "UH3D (*.uh3d)"
    CFX                                        = "CFX (*.cfx5)"
    TOSCA                                      = "TOSCA (*.par)"
    PERMAS                                     = "PERMAS (*.dat *.dato *.uci)"
    TEXT FILE                                  = "TEXT FILE (*.txt *.dat)"
    ONF                                        = "ONF (*.onf)"
    CFD++                                      = "CFD++ (*.inp)"
    OPENFOAM                                   = "OPENFOAM (*)"
    SC/TETRA                                   = "SC/TETRA (*.pre *.mdl)"
    ALL                                        = "ALL (*)"
    AVI                                        = "AVI (*.avi)"
    GIF                                        = "GIF (*.gif)"
    MPG                                        = "MPG (*.m2v *.mpg *.mpeg)"
    SAMCEF                                     = "SAMCEF (*.dat)"
    ANSA to FiberSim structured metadata       = "ANSA to FiberSim structured metadata (*.h5)"
    FiberSim to ANSA metadata                  = "FiberSim to ANSA metadata (*.fsim2ansa)"
    CGNS                                       = "CGNS (*.cgns)"
    ANSA_TOSCA_DB                              = "ANSA_TOSCA_DB (*.ansa_tosca)"
    Epilysis DB                                = "Epilysis DB (*.edb)"
    VIP                                        = "VIP (*.vip)"
    VIP2                                       = "VIP2 (*.vip2)"
    XML                                        = "XML (*.xml *.mcf)"
    All Catia V6 files                         = "All Catia V6 files (*.3dxml *.3drep)"
    All Catia V5 files                         = "All Catia V5 files (*.CATPart *.CATProduct *.cgr)"
    All Catia V4 files                         = "All Catia V4 files (*.model *.session *.dlv)"
    All NX files                               = "All NX files (*.prt *.x_b *.xmt_bin *.x_t *.xmt_txt)"
    All ProEngineer files                      = "All ProEngineer files (*.prt *.prt.? *.prt.?? *.asm *.asm.? *.asm.?? *.xpr *.xam)"
    All Solidworks files                       = "All Solidworks files (*.sldprt *.sldasm)"
    All Inventor files                         = "All Inventor files (*.ipt *.iam)"
    All CoreTechnologie files                  = "All CoreTechnologie files (*.ctp *.cta *.ct)"
    CATIA V6 3dxml                             = "CATIA V6 3dxml (*.3dxml)"
    CATIA V6 3DRep                             = "CATIA V6 3DRep (*.3DRep)"
    CATIA V6 Briefcase                         = "CATIA V6 Briefcase (*.PLMBriefcase)"
    CATPart                                    = "CATPart (*.CATPart)"
    CATProduct                                 = "CATProduct (*.CATProduct)"
    CGR                                        = "CGR (*.cgr)"
    Model                                      = "Model (*.model)"
    Session                                    = "Session (*.session)"
    DLV                                        = "DLV (*.dlv)"
    Unigraphics/NX                             = "Unigraphics/NX (*.prt)"
    ProEngineer Part                           = "ProEngineer Part (*.prt *.prt.? *.prt.??)"
    ProEngineer Assembly                       = "ProEngineer Assembly (*.asm *.asm.? *.asm.??)"
    ProEngineer Family Table Instance Part     = "ProEngineer Family Table Instance Part (*.xpr)"
    ProEngineer Family Table Instance Assembly = "ProEngineer Family Table Instance Assembly (*.xam)"
    Parasolid (binary)                         = "Parasolid (binary) (*.x_b *.xmt_bin)"
    Parasolid (text)                           = "Parasolid (text) (*.x_t *.xmt_txt)"
    SolidWorks Part                            = "SolidWorks Part (*.sldprt)"
    SolidWorks Assembly                        = "SolidWorks Assembly (*.sldasm)"
    Inventor Part                              = "Inventor Part (*.ipt)"
    Inventor Assembly                          = "Inventor Assembly (*.iam)"
    CoreTechnologie Part                       = "CoreTechnologie Part (*.ctp)"
    CoreTechnologie Assembly                   = "CoreTechnologie Assembly (*.cta)"
    ADAMS View                                 = "ADAMS View (*.cmd)"
#   TAITHERM                                   = "TAITHERM (*.tdf)"
    TAITHERM                                   = "RADTHERM (*.tdf)"
    Ansa Thickness                             = "Ansa Thickness (*.ansat)"
    MOLDEX3D                                   = "MOLDEX3D (*.mfe *.msh)"
#   TAITHERM DB                                = "TAITHERM DB (*.db *.csv)"
    TAITHERM DB                                = "RADTHERM DB (*.db)"
    SESTRA                                     = "SESTRA (*.FEM *.INP)"
    THESEUS                                    = "THESEUS (*.tfe)"
    JT                                         = "JT (*.jt)"
    Rhinoceros                                 = "Rhinoceros (*.3dm)"
    U3D and PDF files                          = "U3D and PDF files (*.u3d *.pdf)"
    ACIS                                       = "ACIS (*.sat)"
    SIMULAYT                                   = "SIMULAYT (*.Layup *.layup)"
    Moldflow                                   = "Moldflow (*.udm)"
    MIF-FORM                                   = "MIF-FORM ()"
    TAU                                        = "TAU (*.cdf *.grid)"
#   OPTISTRUCT                                 = "OPTISTRUCT (*.fem *.bdf *.dat)"
    OPTISTRUCT                                 = "OptiStruct (*.fem)"
    OFF-FORM                                   = "OFF-FORM (*.off)"
    atfx files                                 = "atfx files (*.atfx)"
    META Session files                         = "META Session files (*.ses)"
    ADAMS Solver Dataset                       = "ADAMS Solver Dataset (*.adm)"
    Plot3D                                     = "Plot3D (*.g *.x *.xy *.xyz *.p3d)"
    MotionSolve                                = "MotionSolve (*.xml)"
# 
#
# Link Parameters
# 
    fact_thick  = 1.2
# 
# Symmetry Plane
# 
    Origin        = 0., 0., 0.
    Normal Vector = 0., 1., 0.
# 
# Assembler Parameters
# 
    part_id_convert  = true
    usr_spw_id_range = 100000 : 
    vip_wspot_key    = 
# 
# CDH External Assembler
# 
    ext_assemb         = false
# 
# Femsite - Spotweld
# 
    femsite_spw_working_dir     = 
    femsite_spw_exec_file_path  = 
    femsite_spw_strukt_dir      = 
    femsite_spw_inline_option   = NO
    femsite_spw_readonly_option = NO
    femsite_spw_output_option   = YES
    femsite_spw_dbglevel_option = 0
    femsite_spw_files_prefix    = 
# 
# FEMFAT - Spot
# 
    femfat_spot_multi_database = false
    femfat_spot_xml_filename   = 
# 
# FEMFAT - SPOT Database
# 
# E steel (N/mm2)
    E_steel    = 210000.
# E alu (N/mm2)
    E_alu      = 70000.
# F_steel (N/mm2)
    F_steel    = 7500.
# F_alu (N/mm2)
    F_alu      = 5000.
# F_P1_steel (N/mm2)
    F_P1_steel = 1.8
# F_P1_alu
    F_P1_alu   = 2.8
# F_P2_steel
    F_P2_steel = -3.
# F_P2_alu
    F_P2_alu   = -3.2
# Reference sheet thickness
    s_ref      = 1.
# Reference nugget diameter
    D_ref      = 5.3
# Steel_to_Aluminum_Young_modulus_separation_value (N/mm2)
# a material with Young modulus greater than this value is considered as steel,
# otherwise it is considered as aluminum.
    Steel_to_Aluminum_Young_modulus_separation_value = 150000.
# Superelement Defined By option (op2_file | library_file)# 

    superelement_defined_by_option                           = op2_file
# 
# Flanges Thickness and Diameter to Superelement op2 file Map
# format : diam, t1, t2, op2 filename path, superelement id, diagonal
# 

# 

# 
# Flanges Thickness and Diameter to Superelement Library File Map
# format : diam, t1, t2, nastran filename path, diagonal
# 

# 

# Superelement Attachment-Point Names# 

    superelement_4nodes_attachment_points_names_on_t1_sheet  = t1_attach_node_1, t1_attach_node_2, t1_attach_node_3, t1_attach_node_4
# Superelement Attachment-Point Names# 

    superelement_4_nodes_attachment_points_names_on_t2_sheet = t2_attach_node_1, t2_attach_node_2, t2_attach_node_3, t2_attach_node_4
# 

    superelement_8nodes_attachment_points_names_on_t1_sheet  = t1_attach_node_1, t1_attach_node_2, t1_attach_node_3, t1_attach_node_4, t1_attach_node_5, t1_attach_node_6, t1_attach_node_7, t1_attach_node_8
# 

    superelement_8nodes_attachment_points_names_on_t2_sheet  = t2_attach_node_1, t2_attach_node_2, t2_attach_node_3, t2_attach_node_4, t2_attach_node_5, t2_attach_node_6, t2_attach_node_7, t2_attach_node_8
# Matching tolerance for Superelement Map parameters (diameter, thickness)# 

#   match_superelement_map_tolerance                         = 0.
    match_superelement_map_tolerance                         = 
# Superelement Op2 File Include Pch-File# 

    superelement_include_pch_file                            = false
# 
# Flange Thickness to Spot Weld Diameter Map
# format : d1 [,t1 ,d2 [,t2 ,d3 [,....]]] 
#   (where t : Thickness class upper bound 
#               0 < t(i) < t(i+1)
#               i < 100
#          d : Spot Weld Diameter for it )
# 
# alternatively use your own mapping function by setting:
#     thick_spw_diam  = MappingFunction
# where MappingFunction is a user function of format :
#           float MappingFunction( float thickness );
# return value: the diameter value according to thickness
# 
    thick_spw_diam                           = 4.00,1.02,5.00,1.78,6.00
# 
# Flange Thickness to Spot Weld Diameter Map
# format : d1 [,t1 ,d2 [,t2 ,d3 [,....]]] 
#   (where t : Thickness class upper bound 
#               0 < t(i) < t(i+1)
#               i < 100
#          d : Spot Weld Diameter for it )
# 
# alternatively use your own mapping function by setting:
#     thick_spw_diam  = MappingFunction
# where MappingFunction is a user function of format :
#           float MappingFunction( float thickness );
# return value: the diameter value according to thickness
# 
    thick_spw_diam_path                      = 
# 
# Assignment of diameter calculated from thickness to diameter map to connection
# during realization, is depending to the value (y/n) of this variable:
# 
    set_spw_diam_from_map_on_realization     = false
# 
# Assignment of diameter calculated from thickness to diameter map to connection
# during realization, is depending to the value (y/n) of this variable:
# 
    force_recalc_diam_from_thick_to_diam_map = false
# Master Flange Election Method
# format : INNER|OUTER|MIDDLE|ALL,THINNEST|THICKEST|MEAN
    spw_diam_mflng                           = INNER,THINNEST
# 
# Custom function to update User field of a Connection
# 
    weld_user_field_update                        = 
# 
# Custom function to update User field of a Connection
# 
    weld_user_field_update_path                   = 
# 
# Projected shells to Radioss Spring PID mapping function
# function format :  element Function( matrix Shells );
# where you get a matrix of the projected shells, 
#       and you must return the property to be used by the
#       springs that will be created. This property can be
#       either created or selected by the properties list
# 
    shell_to_spring_pid                           = 
# 
# Projected shells to Radioss Spring PID mapping function
# function format :  element Function( matrix Shells );
# where you get a matrix of the projected shells, 
#       and you must return the property to be used by the
#       springs that will be created. This property can be
#       either created or selected by the properties list
# 
    shell_to_spring_pid_path                      = 
# 
# User connection post realization function
# function format :  int Function( element Connection,
#                                  matrix XYZ_per_flange,
#                                  matrix ProjEnts_per_flange,
#                                  matrix interfaces_per_flange,
[...]
    112 CNRAGLI = 
    112 CNRAGLO = 
    112 CWSETS  = 
    112 CWSPOT  = 
    112 DELMAX  = 
    112 DLDMAX  = 
    112 DLDMIN  = 
    112 EPSITR  = 
    112 GMCHK   = 
    112 GSMOVE  = 
    112 GSPROJ  = 
    112 GSTOL   = 
    112 MAXEXP  = 
    112 MAXITR  = 
    112 NREDIA  = 
    112 PROJTOL = 
    112 PRTSW   = 
    112 RBE3WT  = 
    112 GSCURV  = 
    112 DRATIO  = 
    112 Add parameters in case control = NO
# 
#  Loadcase Nastran 400 
# 
# 
#  Printout Bulk Data 
# 
    400 Bulk Data Selection = SORT
    400 Printout            = 
    400 Result File Format             = OP2
    400 Rigid Element Method           = LINEAR
    400 Add MPC statement              = Common Case
# 
#  Singularity 
# 
    400 Enable AUTOSPC              = NO
    400 Constraint Mode             = 
    400 Print Singularity Table     = 
    400 Generate SPC/MPC Punch File = 
    400 Nastran/FMS Statements         = 
    400 Executive Control              = 
    400 Common Case                    = 
# 
#  Parameters 
# 
    400 AGGPCH   = 
    400 ALPHA1   = 
    400 ALPHA2   = 
    400 AMLS     = 
    400 AMLSNCPU = 
    400 ASCOUP   = 
    400 AUTOADJ  = 
    400 AUTOMSET = 
    400 AUTOQSET = 
    400 AUTOSPC  = 
    400 AUTOSPRT = 
    400 BAILOUT  = 
    400 CONFAC   = 
    400 COUPASET = 
    400 COUPMASS = 
    400 DBALL    = 
    400 DDRMM    = 
    400 DESPCH   = 
    400 DESPCH1  = 
    400 EPZERO   = 
    400 ERROR    = 
    400 EXTDR    = 
    400 EXTDROUT = 
    400 EXTDRUNT = 
    400 EXTOUT   = 
    400 EXTUNIT  = 
    400 FFRS     = 
    400 FIXEDB   = 
    400 FOLLOWK  = 
    400 FRRD3    = 
    400 FZERO    = 
    400 G        = 
    400 GFL      = 
    400 GRDPNT   = 
    400 HFREQ    = 
    400 INREL    = 
    400 INRLM    = 
    400 K6ROT    = 
    400 KDAMP    = 
    400 KDAMPFL  = 
    400 LFREQ    = 
    400 LGDISP   = 
    400 LMODES   = 
    400 MAXRATIO = 
    400 MECHFIX  = 
    400 MODACC   = 
    400 MPCMODEP = 
    400 NASPRT   = 
    400 NDAMP    = 
    400 NEWSEQ   = 
    400 NLAYERS  = 
    400 NOCOMPS  = 
    400 NOGPF    = 
    400 OGEOM    = 
    400 OMAXR    = 
    400 OP2MODEP = 
    400 OPTEXIT  = 
    400 OSWELM   = 
    400 OSWPPT   = 
    400 OUGCORD  = 
    400 OUGDS    = 
    400 OUGKS    = 
    400 OUGMS    = 
    400 OUNIT1   = 
    400 OUNIT2   = 
    400 PATVER   = 
    400 PEMMAPC  = 
    400 PEMNPART = 
    400 POST     = 
    400 POSTEXT  = 
    400 PRGPST   = 
    400 PRTMAXIM = 
    400 PRTRESLT = 
    400 RBMEIG   = 
    400 RESVEC   = 
    400 RESVINER = 
    400 RESVSE   = 
    400 RESVSLI  = 
    400 RESVSO   = 
    400 RHO      = 
    400 SFECOUP  = 
    400 SHLDAMP  = 
    400 SIGMA    = 
    400 SKINOUT  = 
    400 SNORM    = 
    400 SNORMPRT = 
    400 SPARSEDR = 
    400 SPCMODEP = 
    400 SRCOMPS  = 
    400 TINY     = 
    400 TOLRSC   = 
    400 UNITOUT  = 
    400 VMOPT    = 
    400 W3       = 
    400 W3FL     = 
    400 W4       = 
    400 W4FL     = 
    400 WTMASS   = 
    400 XYUNIT   = 
# 
#  MDLPRM 
# 
    400 BRTOBM   = 
    400 BUSHRT   = 
    400 DCFLTEXP = 
    400 DELELAS  = 
    400 DELFAST  = 
    400 DELMASS  = 
    400 DELSEAM  = 
    400 DELWELD  = 
    400 DMPITER  = 
    400 GNLSTN   = 
    400 INTOUT   = 
    400 LMT2MPC  = 
    400 MLTSPLIN = 
    400 NLDIFF   = 
    400 NONUPIV  = 
    400 NSGRDS4  = 
    400 OFFDEF   = 
    400 PEXTS4   = 
    400 PIVTHRSH = 
    400 PRTELAS  = 
    400 PRTFAST  = 
    400 PRTMASS  = 
    400 PRTSEAM  = 
    400 PRTWELD  = 
    400 QR6ROT   = 
    400 QRSHEAR  = 
    400 RELAXF   = 
    400 SHRTOQ4  = 
    400 SPBLNDX  = 
    400 TWBRBML  = 
# 
#  SWLDPRM 
# 
    400 ACTVTOL = 
    400 CHKRUN  = 
    400 CNRAGLI = 
    400 CNRAGLO = 
    400 CWSETS  = 
    400 CWSPOT  = 
    400 DELMAX  = 
    400 DLDMAX  = 
    400 DLDMIN  = 
    400 EPSITR  = 
    400 GMCHK   = 
    400 GSMOVE  = 
    400 GSPROJ  = 
    400 GSTOL   = 
    400 MAXEXP  = 
    400 MAXITR  = 
    400 NREDIA  = 
    400 PROJTOL = 
    400 PRTSW   = 
    400 RBE3WT  = 
    400 GSCURV  = 
    400 DRATIO  = 
    400 Add parameters in case control = NO
# 
#  Loadcase Sonate 
# 
# 
#  Loadcase Sonate Weakly Coupled 
# 
    W.C. Domain               = FREQUENCY
    W.C. Cfl                  = 0.
    W.C. DeltaT               = 0.
    W.C. TsRelax              = 0.
    W.C. FastLVL              = 0
    W.C. InternalImpedance    = 0
    W.C. FrequencyRange start = 0.
    W.C. FrequencyRange stop  = 0.
    W.C. SmoothingFactor      = 0.
    W.C. MeshVerification     = NO
    W.C. TransferFunction     = NO
    W.C. StructureOnly        = NO
# 
#  Loadcase Sonate Strongly Coupled 
# 
    S.C. Domain               = FREQUENCY
    S.C. Cfl                  = 0.
    S.C. DeltaT               = 0.
    S.C. TsRelax              = 0.
    S.C. FastLVL              = 0
    S.C. InternalImpedance    = 0
    S.C. FrequencyRange start = 0.
    S.C. FrequencyRange stop  = 0.
    S.C. SmoothingFactor      = 0.
    S.C. MeshVerification     = NO
    S.C. TransferFunction     = NO
    S.C. StructureOnly        = NO
# 
#  Loadcase Sonate Acoustic 
# 
    A. Domain               = FREQUENCY
    A. Cfl                  = 0.
    A. DeltaT               = 0.
    A. TsRelax              = 0.
    A. FastLVL              = 0
    A. InternalImpedance    = 0
    A. FrequencyRange start = 0.
    A. FrequencyRange stop  = 0.
    A. SmoothingFactor      = 0.
    A. MeshVerification     = NO
    A. TransferFunction     = NO
    A. StructureOnly        = NO
# 
#  Loadcase Sonate Blocked Pressure 
# 
    B.P. Domain               = FREQUENCY
    B.P. Cfl                  = 0.
    B.P. DeltaT               = 0.
    B.P. TsRelax              = 0.
    B.P. FastLVL              = 0
    B.P. InternalImpedance    = 0
    B.P. FrequencyRange start = 0.
    B.P. FrequencyRange stop  = 0.
    B.P. SmoothingFactor      = 0.
    B.P. MeshVerification     = NO
    B.P. TransferFunction     = NO
    B.P. StructureOnly        = NO
# 
#  Loadcase Sonate Acoustic Transient Response 
# 
    A.T.R. Domain               = FREQUENCY
    A.T.R. Cfl                  = 0.
    A.T.R. DeltaT               = 0.
    A.T.R. TsRelax              = 0.
    A.T.R. FastLVL              = 0
    A.T.R. InternalImpedance    = 0
    A.T.R. FrequencyRange start = 0.
    A.T.R. FrequencyRange stop  = 0.
    A.T.R. SmoothingFactor      = 0.
    A.T.R. MeshVerification     = NO
    A.T.R. TransferFunction     = NO
    A.T.R. StructureOnly        = NO
# 
#  Loadcase Sonate Transient Modal superposition Weakly Coupled 
# 
    T.M.s.W.C. Domain               = FREQUENCY
    T.M.s.W.C. Cfl                  = 0.
    T.M.s.W.C. DeltaT               = 0.
    T.M.s.W.C. TsRelax              = 0.
    T.M.s.W.C. FastLVL              = 0
    T.M.s.W.C. InternalImpedance    = 0
    T.M.s.W.C. FrequencyRange start = 0.
    T.M.s.W.C. FrequencyRange stop  = 0.
    T.M.s.W.C. SmoothingFactor      = 0.
    T.M.s.W.C. MeshVerification     = NO
    T.M.s.W.C. TransferFunction     = NO
    T.M.s.W.C. StructureOnly        = NO
# 
#  Loadcase Sonate Offline Transfer Function 
# 
    Off.T.F Domain               = FREQUENCY
    Off.T.F Cfl                  = 0.
    Off.T.F DeltaT               = 0.
    Off.T.F TsRelax              = 0.
    Off.T.F FastLVL              = 0
    Off.T.F InternalImpedance    = 0
    Off.T.F FrequencyRange start = 0.
    Off.T.F FrequencyRange stop  = 0.
    Off.T.F SmoothingFactor      = 0.
    Off.T.F MeshVerification     = NO
    Off.T.F TransferFunction     = YES
    Off.T.F StructureOnly        = NO
# 
#  Loadcase Sonate Online Transfer Function 
# 
    On.T.F Domain               = FREQUENCY
    On.T.F Cfl                  = 0.
    On.T.F DeltaT               = 0.
    On.T.F TsRelax              = 0.
    On.T.F FastLVL              = 0
    On.T.F InternalImpedance    = 0
    On.T.F FrequencyRange start = 0.
    On.T.F FrequencyRange stop  = 0.
    On.T.F SmoothingFactor      = 0.
    On.T.F MeshVerification     = NO
    On.T.F TransferFunction     = YES
    On.T.F StructureOnly        = NO
# 
#  Loadcase Sonate Weakly Vibrating 
# 
    W.V. Domain               = FREQUENCY
    W.V. Cfl                  = 0.
    W.V. DeltaT               = 0.
    W.V. TsRelax              = 0.
    W.V. FastLVL              = 0
    W.V. InternalImpedance    = 0
    W.V. FrequencyRange start = 0.
    W.V. FrequencyRange stop  = 0.
    W.V. SmoothingFactor      = 0.
    W.V. MeshVerification     = NO
    W.V. TransferFunction     = NO
    W.V. StructureOnly        = NO
# 
# Reduced Representations 
# 
# 
#  R.R. Header Parameters 
# 
# 
#  R.R. Solution 103 
# 
    R.R.103 AGGPCH   = 
    R.R.103 ALPHA1   = 
    R.R.103 ALPHA2   = 
    R.R.103 AMLS     = 
    R.R.103 AMLSNCPU = 
    R.R.103 ASCOUP   = 
    R.R.103 AUTOADJ  = 
    R.R.103 AUTOMSET = 
    R.R.103 AUTOQSET = 
    R.R.103 AUTOSPC  = 
    R.R.103 AUTOSPRT = 
    R.R.103 BAILOUT  = 
    R.R.103 CONFAC   = 
    R.R.103 COUPASET = 
    R.R.103 COUPMASS = 
    R.R.103 DBALL    = 
    R.R.103 DDRMM    = 
    R.R.103 DESPCH   = 
    R.R.103 DESPCH1  = 
    R.R.103 EPZERO   = 
    R.R.103 ERROR    = 
    R.R.103 EXTDR    = 
    R.R.103 EXTDROUT = 
    R.R.103 EXTDRUNT = 
    R.R.103 EXTOUT   = 
    R.R.103 EXTUNIT  = 
    R.R.103 FFRS     = 
    R.R.103 FIXEDB   = 
    R.R.103 FOLLOWK  = 
    R.R.103 FRRD3    = 
    R.R.103 FZERO    = 
    R.R.103 G        = 
    R.R.103 GFL      = 
    R.R.103 GRDPNT   = 
    R.R.103 HFREQ    = 
    R.R.103 INREL    = 
    R.R.103 INRLM    = 
    R.R.103 K6ROT    = 
    R.R.103 KDAMP    = 
    R.R.103 KDAMPFL  = 
    R.R.103 LFREQ    = 
    R.R.103 LGDISP   = 
    R.R.103 LMODES   = 
    R.R.103 MAXRATIO = 
    R.R.103 MECHFIX  = 
    R.R.103 MODACC   = 
    R.R.103 MPCMODEP = 
    R.R.103 NASPRT   = 
    R.R.103 NDAMP    = 
    R.R.103 NEWSEQ   = 
    R.R.103 NLAYERS  = 
    R.R.103 NOCOMPS  = 
    R.R.103 NOGPF    = 
    R.R.103 OGEOM    = 
    R.R.103 OMAXR    = 
    R.R.103 OP2MODEP = 
    R.R.103 OPTEXIT  = 
    R.R.103 OSWELM   = 
    R.R.103 OSWPPT   = 
    R.R.103 OUGCORD  = 
    R.R.103 OUGDS    = 
    R.R.103 OUGKS    = 
    R.R.103 OUGMS    = 
    R.R.103 OUNIT1   = 
    R.R.103 OUNIT2   = 
    R.R.103 PATVER   = 
    R.R.103 PEMMAPC  = 
    R.R.103 PEMNPART = 
    R.R.103 POST     = 
    R.R.103 POSTEXT  = 
    R.R.103 PRGPST   = 
    R.R.103 PRTMAXIM = 
    R.R.103 PRTRESLT = 
    R.R.103 RBMEIG   = 
    R.R.103 RESVEC   = 
    R.R.103 RESVINER = 
    R.R.103 RESVSE   = 
    R.R.103 RESVSLI  = 
    R.R.103 RESVSO   = 
    R.R.103 RHO      = 
    R.R.103 SFECOUP  = 
    R.R.103 SHLDAMP  = 
    R.R.103 SIGMA    = 
    R.R.103 SKINOUT  = 
    R.R.103 SNORM    = 
    R.R.103 SNORMPRT = 
    R.R.103 SPARSEDR = 
    R.R.103 SPCMODEP = 
    R.R.103 SRCOMPS  = 
    R.R.103 TINY     = 
    R.R.103 TOLRSC   = 
    R.R.103 UNITOUT  = 
    R.R.103 VMOPT    = 
    R.R.103 W3       = 
    R.R.103 W3FL     = 
    R.R.103 W4       = 
    R.R.103 W4FL     = 
    R.R.103 WTMASS   = 
    R.R.103 XYUNIT   = 
# 
#  R.R. Solution 108 
# 
    R.R.108 AGGPCH   = 
    R.R.108 ALPHA1   = 
    R.R.108 ALPHA2   = 
    R.R.108 AMLS     = 
    R.R.108 AMLSNCPU = 
    R.R.108 ASCOUP   = 
    R.R.108 AUTOADJ  = 
    R.R.108 AUTOMSET = 
    R.R.108 AUTOQSET = 
    R.R.108 AUTOSPC  = 
    R.R.108 AUTOSPRT = 
    R.R.108 BAILOUT  = 
    R.R.108 CONFAC   = 
    R.R.108 COUPASET = 
    R.R.108 COUPMASS = 
    R.R.108 DBALL    = 
    R.R.108 DDRMM    = 
    R.R.108 DESPCH   = 
    R.R.108 DESPCH1  = 
    R.R.108 EPZERO   = 
    R.R.108 ERROR    = 
    R.R.108 EXTDR    = 
    R.R.108 EXTDROUT = 
    R.R.108 EXTDRUNT = 
    R.R.108 EXTOUT   = 
    R.R.108 EXTUNIT  = 
    R.R.108 FFRS     = 
    R.R.108 FIXEDB   = 
    R.R.108 FOLLOWK  = 
    R.R.108 FRRD3    = 
    R.R.108 FZERO    = 
    R.R.108 G        = 
    R.R.108 GFL      = 
    R.R.108 GRDPNT   = 
    R.R.108 HFREQ    = 
    R.R.108 INREL    = 
    R.R.108 INRLM    = 
    R.R.108 K6ROT    = 
    R.R.108 KDAMP    = 
    R.R.108 KDAMPFL  = 
    R.R.108 LFREQ    = 
    R.R.108 LGDISP   = 
    R.R.108 LMODES   = 
    R.R.108 MAXRATIO = 
    R.R.108 MECHFIX  = 
    R.R.108 MODACC   = 
    R.R.108 MPCMODEP = 
    R.R.108 NASPRT   = 
    R.R.108 NDAMP    = 
    R.R.108 NEWSEQ   = 
    R.R.108 NLAYERS  = 
    R.R.108 NOCOMPS  = 
    R.R.108 NOGPF    = 
    R.R.108 OGEOM    = 
    R.R.108 OMAXR    = 
    R.R.108 OP2MODEP = 
    R.R.108 OPTEXIT  = 
    R.R.108 OSWELM   = 
    R.R.108 OSWPPT   = 
    R.R.108 OUGCORD  = 
    R.R.108 OUGDS    = 
    R.R.108 OUGKS    = 
    R.R.108 OUGMS    = 
    R.R.108 OUNIT1   = 
    R.R.108 OUNIT2   = 
    R.R.108 PATVER   = 
    R.R.108 PEMMAPC  = 
    R.R.108 PEMNPART = 
    R.R.108 POST     = 
    R.R.108 POSTEXT  = 
    R.R.108 PRGPST   = 
    R.R.108 PRTMAXIM = 
    R.R.108 PRTRESLT = 
    R.R.108 RBMEIG   = 
    R.R.108 RESVEC   = 
    R.R.108 RESVINER = 
    R.R.108 RESVSE   = 
    R.R.108 RESVSLI  = 
    R.R.108 RESVSO   = 
    R.R.108 RHO      = 
    R.R.108 SFECOUP  = 
    R.R.108 SHLDAMP  = 
    R.R.108 SIGMA    = 
    R.R.108 SKINOUT  = 
    R.R.108 SNORM    = 
    R.R.108 SNORMPRT = 
    R.R.108 SPARSEDR = 
    R.R.108 SPCMODEP = 
    R.R.108 SRCOMPS  = 
    R.R.108 TINY     = 
    R.R.108 TOLRSC   = 
    R.R.108 UNITOUT  = 
    R.R.108 VMOPT    = 
    R.R.108 W3       = 
    R.R.108 W3FL     = 
    R.R.108 W4       = 
    R.R.108 W4FL     = 
    R.R.108 WTMASS   = 
    R.R.108 XYUNIT   = 
# 
#  R.R. Solution 111 
# 
    R.R.111 AGGPCH   = 
    R.R.111 ALPHA1   = 
    R.R.111 ALPHA2   = 
    R.R.111 AMLS     = 
    R.R.111 AMLSNCPU = 
    R.R.111 ASCOUP   = 
    R.R.111 AUTOADJ  = 
    R.R.111 AUTOMSET = 
    R.R.111 AUTOQSET = 
    R.R.111 AUTOSPC  = 
    R.R.111 AUTOSPRT = 
    R.R.111 BAILOUT  = 
    R.R.111 CONFAC   = 
    R.R.111 COUPASET = 
    R.R.111 COUPMASS = 
    R.R.111 DBALL    = 
    R.R.111 DDRMM    = 
    R.R.111 DESPCH   = 
    R.R.111 DESPCH1  = 
    R.R.111 EPZERO   = 
    R.R.111 ERROR    = 
    R.R.111 EXTDR    = 
    R.R.111 EXTDROUT = 
    R.R.111 EXTDRUNT = 
    R.R.111 EXTOUT   = 
    R.R.111 EXTUNIT  = 
    R.R.111 FFRS     = 
    R.R.111 FIXEDB   = 
    R.R.111 FOLLOWK  = 
    R.R.111 FRRD3    = 
    R.R.111 FZERO    = 
    R.R.111 G        = 
    R.R.111 GFL      = 
    R.R.111 GRDPNT   = 
    R.R.111 HFREQ    = 
    R.R.111 INREL    = 
    R.R.111 INRLM    = 
    R.R.111 K6ROT    = 
    R.R.111 KDAMP    = 
    R.R.111 KDAMPFL  = 
    R.R.111 LFREQ    = 
    R.R.111 LGDISP   = 
    R.R.111 LMODES   = 
    R.R.111 MAXRATIO = 
    R.R.111 MECHFIX  = 
    R.R.111 MODACC   = 
    R.R.111 MPCMODEP = 
    R.R.111 NASPRT   = 
    R.R.111 NDAMP    = 
    R.R.111 NEWSEQ   = 
    R.R.111 NLAYERS  = 
    R.R.111 NOCOMPS  = 
    R.R.111 NOGPF    = 
    R.R.111 OGEOM    = 
    R.R.111 OMAXR    = 
    R.R.111 OP2MODEP = 
    R.R.111 OPTEXIT  = 
    R.R.111 OSWELM   = 
    R.R.111 OSWPPT   = 
    R.R.111 OUGCORD  = 
    R.R.111 OUGDS    = 
    R.R.111 OUGKS    = 
    R.R.111 OUGMS    = 
    R.R.111 OUNIT1   = 
    R.R.111 OUNIT2   = 
    R.R.111 PATVER   = 
    R.R.111 PEMMAPC  = 
    R.R.111 PEMNPART = 
    R.R.111 POST     = 
    R.R.111 POSTEXT  = 
    R.R.111 PRGPST   = 
    R.R.111 PRTMAXIM = 
    R.R.111 PRTRESLT = 
    R.R.111 RBMEIG   = 
    R.R.111 RESVEC   = 
    R.R.111 RESVINER = 
    R.R.111 RESVSE   = 
    R.R.111 RESVSLI  = 
    R.R.111 RESVSO   = 
    R.R.111 RHO      = 
    R.R.111 SFECOUP  = 
    R.R.111 SHLDAMP  = 
    R.R.111 SIGMA    = 
    R.R.111 SKINOUT  = 
    R.R.111 SNORM    = 
    R.R.111 SNORMPRT = 
    R.R.111 SPARSEDR = 
    R.R.111 SPCMODEP = 
    R.R.111 SRCOMPS  = 
    R.R.111 TINY     = 
    R.R.111 TOLRSC   = 
    R.R.111 UNITOUT  = 
    R.R.111 VMOPT    = 
    R.R.111 W3       = 
    R.R.111 W3FL     = 
    R.R.111 W4       = 
    R.R.111 W4FL     = 
    R.R.111 WTMASS   = 
    R.R.111 XYUNIT   = 
# Define merge policy for IO points
# when merging databases or during Input files
#
    merge_A_points                   = equal name
# Define merge policy for IO points
# when merging databases or during Input files
#
    merge_LC_points                  = equal name
# Define output with subsystem policy for IO points
#
    output_with_subsystem            = false
    copy_A_POINT_attributes_to_node  = false
    copy_A_POINT_id_to_node      = true
    copy_A_POINT_name_to_node    = true
    copy_A_POINT_comment_to_node = false
    copy_LC_POINT_attributes_to_node = false
    copy_LC_POINT_id_to_node      = true
    copy_LC_POINT_name_to_node    = true
    copy_LC_POINT_comment_to_node = false
    use_connector_name_on_generated_elems       = false
    use_connector_comment_on_generated_elems    = false
    use_connector_user_notes_on_generated_elems = false
    ector_user_notes_to                         = Comment
    use_geb_name_on_generated_elems       = false
    use_geb_comment_on_generated_elems    = false
    use_geb_user_notes_on_generated_elems = false
    geb_user_notes_to                     = Comment
#
# Contact Flanges Data 
#
    Pick Entities                                          = false
    Search for template on:                                = current_database

#When reference Database is used Ids are ignored.
    Contact Template ID                                    = 
    Pretension Template ID                                 = 
    Isurface Template ID                                   = 

#When current Database is used DB Template Name is ignored.
    Reference DB Template Name                             = 
    Create Type                                            = Contact

#Select if proximity criteria will be using a set Distance or a Factor#
#A negative value means that Distance is selected.#
    Factor or Distance value                               = 1.
    Angle Tolerance                                        = 10.
    Solid Thickness                                        = 1.
    Include Connection Elements                            = true
    Exclude Shells / Solid Facets connected to Connections = false
    Enable Merge of neighbouring Contacts                  = true
    Merging distance                                       = 6
    Use Finer Mesh as Master                               = false
    Update Clearance / CINTERF                             = true
#
# Pretension Load Data 
#
    Select Pretension Direction conditions = FREE
    FORCE / DISP                           = 0.
# 
# Solid Material Orientation Vectors Colors 
# 
    solid_mat_orient_X_color = 255, 0, 0, 100
    solid_mat_orient_Y_color = 0, 255, 0, 100
    solid_mat_orient_Z_color = 0, 150, 170, 100
# 
# Display Model 
# 
    dm_s_target_length                      = 40.
    dm_s_defeaturing_length                 = 20.
    dm_s_feature_line_angle                 = 20.
    dm_s_connectivity_area_limit            = 0.
    dm_s_fill_hole_diameter                 = 40.
    dm_s_keep_holes_with_hard_points        = true
    dm_s_freeze_hard_points                 = false
    dm_s_respect_pid_bounds                 = false
    dm_s_create_plotels_in_1d_elements      = false
    dm_s_add_existing_plotels_to_set        = false
    dm_s_create_plotels_in_rbe2             = true
    dm_s_create_plotels_in_rbe3             = true
    dm_s_create_plotels_in_cbar             = true
    dm_s_create_plotels_in_rbar             = true
    dm_s_create_plotels_in_cbeam            = true
    dm_s_create_plotels_in_crod             = true
    dm_s_create_plotels_in_celas            = true
    dm_s_create_plotels_in_cdamp            = true
    dm_s_create_plotels_in_cbush            = true
    dm_s_create_plotels_in_cmass            = true
    dm_s_create_plotels_in_mpcs             = true
    dm_s_hard_points_are_grids_with_name    = true
    dm_s_hard_points_are_grids_with_field10 = true
    dm_s_hard_points_are_alc_points         = true
    dm_s_hard_points_are_grids_from_sets    = false
    dm_s_output_element_type_options        = SHELL
    dm_s_hard_points_are_alc_points_options = all
# ***User Defined Keywords # 
